
*** ChampSim Multicore Out-of-Order Simulator ***

Warmup Instructions: 50000000
Simulation Instructions: 50000000
Number of CPUs: 2
LLC sets: 4096
LLC ways: 16
Off-chip DRAM Size: 4096 MB Channels: 1 Width: 64-bit Data Rate: 6400 MT/s
CPU 0 runs traces/605.mcf_s-1554B.champsimtrace.xz
.xz
CPU 1 runs traces/605.mcf_s-1554B.champsimtrace.xz
.xz
CPU 0 Bimodal branch predictor
BTB has LRU replacement policy
ITLB has LRU replacement policy
DTLB has LRU replacement policy
STLB has LRU replacement policy
L1I has LRU replacement policy
L1D has LRU replacement policy
L2C has LRU replacement policy
LLC has LRU replacement policy
CPU 1 Bimodal branch predictor
BTB has LRU replacement policy
ITLB has LRU replacement policy
DTLB has LRU replacement policy
STLB has LRU replacement policy
L1I has LRU replacement policy
L1D has LRU replacement policy
L2C has LRU replacement policy
LLC has LRU replacement policy
[CEASER][REKEY] Rekeying Set 0 → Epoch 1 at cycle 20000
[CEASER][MIGRATE] Moving block: Addr=0xf7f4ea4bbe | OldSet=0 → NewSet=1151 | Way=0
[CEASER][VICTIM] Set=1151 | VictimWay=1 | Replacing Addr=0xf5cd59c55a | LRU=1
[CEASER][MIGRATE] Moving block: Addr=0xf7f4ea538d | OldSet=0 → NewSet=3946 | Way=1
[CEASER][VICTIM] Set=3946 | VictimWay=8 | Replacing Addr=0xf5cd59c55a | LRU=8
[CEASER][MIGRATE] Moving block: Addr=0xf7f4ea67cb | OldSet=0 → NewSet=2935 | Way=2
[CEASER][VICTIM] Set=2935 | VictimWay=5 | Replacing Addr=0xf5cd59c55a | LRU=5
[CEASER][MIGRATE] Moving block: Addr=0x2b4cc0814d | OldSet=0 → NewSet=1699 | Way=3
[CEASER][VICTIM] Set=1699 | VictimWay=5 | Replacing Addr=0xf5cd59c55a | LRU=5
[CEASER][REKEY] Rekeying Set 1 → Epoch 1 at cycle 40000
[CEASER][MIGRATE] Moving block: Addr=0xa3a0df3c06 | OldSet=1 → NewSet=713 | Way=0
[CEASER][VICTIM] Set=713 | VictimWay=14 | Replacing Addr=0xf5cd59c55a | LRU=14
[CEASER][MIGRATE] Moving block: Addr=0xa3a0df3a53 | OldSet=1 → NewSet=3459 | Way=1
[CEASER][VICTIM] Set=3459 | VictimWay=0 | Replacing Addr=0xf7f4ea33de | LRU=15
[CEASER][MIGRATE] Moving block: Addr=0x2b4cc07213 | OldSet=1 → NewSet=3695 | Way=2
[CEASER][VICTIM] Set=3695 | VictimWay=5 | Replacing Addr=0xf5cd59c55a | LRU=5
[CEASER][MIGRATE] Moving block: Addr=0x2b4cc07446 | OldSet=1 → NewSet=293 | Way=3
[CEASER][VICTIM] Set=293 | VictimWay=4 | Replacing Addr=0xf5cd59c55a | LRU=4
[CEASER][MIGRATE] Moving block: Addr=0xb1bc793241 | OldSet=1 → NewSet=2477 | Way=4
[CEASER][VICTIM] Set=2477 | VictimWay=1 | Replacing Addr=0xf7f4ea41fa | LRU=15
[CEASER][MIGRATE] Moving block: Addr=0xb1bc793414 | OldSet=1 → NewSet=1767 | Way=5
[CEASER][VICTIM] Set=1767 | VictimWay=14 | Replacing Addr=0xf5cd59c55a | LRU=14
[CEASER][MIGRATE] Moving block: Addr=0x42194c5ea0 | OldSet=1 → NewSet=2666 | Way=6
[CEASER][VICTIM] Set=2666 | VictimWay=5 | Replacing Addr=0xf5cd59c55a | LRU=5
[CEASER][REKEY] Rekeying Set 2 → Epoch 1 at cycle 60000
[CEASER][MIGRATE] Moving block: Addr=0xa3a0df415d | OldSet=2 → NewSet=212 | Way=0
[CEASER][VICTIM] Set=212 | VictimWay=13 | Replacing Addr=0xf5cd59c55a | LRU=13
[CEASER][MIGRATE] Moving block: Addr=0xa3a0df3fcc | OldSet=2 → NewSet=60 | Way=1
[CEASER][VICTIM] Set=60 | VictimWay=11 | Replacing Addr=0xf5cd59c55a | LRU=11
[CEASER][MIGRATE] Moving block: Addr=0x2b4cc06fbf | OldSet=2 → NewSet=2245 | Way=2
[CEASER][VICTIM] Set=2245 | VictimWay=15 | Replacing Addr=0xf5cd59c55a | LRU=15
[CEASER][MIGRATE] Moving block: Addr=0x2b4cc071d9 | OldSet=2 → NewSet=3226 | Way=3
[CEASER][VICTIM] Set=3226 | VictimWay=1 | Replacing Addr=0xf7f4ea35da | LRU=15
[CEASER][MIGRATE] Moving block: Addr=0x86af5ff5a2 | OldSet=2 → NewSet=844 | Way=4
[CEASER][VICTIM] Set=844 | VictimWay=10 | Replacing Addr=0xf5cd59c55a | LRU=10
[CEASER][MIGRATE] Moving block: Addr=0xb1bc79318b | OldSet=2 → NewSet=2904 | Way=5
[CEASER][VICTIM] Set=2904 | VictimWay=13 | Replacing Addr=0xf5cd59c55a | LRU=13
[CEASER][MIGRATE] Moving block: Addr=0xb8c2ee505b | OldSet=2 → NewSet=4055 | Way=6
[CEASER][VICTIM] Set=4055 | VictimWay=3 | Replacing Addr=0xf7f4ea57b6 | LRU=15
[CEASER][MIGRATE] Moving block: Addr=0x95eea2010f | OldSet=2 → NewSet=148 | Way=7
[CEASER][VICTIM] Set=148 | VictimWay=10 | Replacing Addr=0xf5cd59c55a | LRU=10
[CEASER][MIGRATE] Moving block: Addr=0x95eea2193c | OldSet=2 → NewSet=2945 | Way=8
[CEASER][VICTIM] Set=2945 | VictimWay=14 | Replacing Addr=0xf5cd59c55a | LRU=14
[CEASER][MIGRATE] Moving block: Addr=0x95eea21f69 | OldSet=2 → NewSet=1227 | Way=9
[CEASER][VICTIM] Set=1227 | VictimWay=1 | Replacing Addr=0xf7f4ea3767 | LRU=15
[CEASER][MIGRATE] Moving block: Addr=0x95eea22d7a | OldSet=2 → NewSet=3996 | Way=10
[CEASER][VICTIM] Set=3996 | VictimWay=11 | Replacing Addr=0xf5cd59c55a | LRU=11
[CEASER][MIGRATE] Moving block: Addr=0x99c4f0f9cb | OldSet=2 → NewSet=3811 | Way=11
[CEASER][VICTIM] Set=3811 | VictimWay=12 | Replacing Addr=0xf5cd59c55a | LRU=12
[CEASER][MIGRATE] Moving block: Addr=0x99c4f0ff9e | OldSet=2 → NewSet=425 | Way=12
[CEASER][VICTIM] Set=425 | VictimWay=13 | Replacing Addr=0xf5cd59c55a | LRU=13
[CEASER][REKEY] Rekeying Set 3 → Epoch 1 at cycle 80000
[CEASER][MIGRATE] Moving block: Addr=0x95eea1fc4c | OldSet=3 → NewSet=309 | Way=0
[CEASER][VICTIM] Set=309 | VictimWay=5 | Replacing Addr=0x2b4cc09968 | LRU=15
[CEASER][MIGRATE] Moving block: Addr=0x99c4f1092a | OldSet=3 → NewSet=2017 | Way=1
[CEASER][VICTIM] Set=2017 | VictimWay=13 | Replacing Addr=0xf5cd59c55a | LRU=13
[CEASER][MIGRATE] Moving block: Addr=0x99c4f11119 | OldSet=3 → NewSet=3316 | Way=2
[CEASER][VICTIM] Set=3316 | VictimWay=10 | Replacing Addr=0x9f422b404b | LRU=15
[CEASER][MIGRATE] Moving block: Addr=0x99c4f1255f | OldSet=3 → NewSet=2281 | Way=3
[CEASER][VICTIM] Set=2281 | VictimWay=13 | Replacing Addr=0xf5cd59c55a | LRU=13
[CEASER][MIGRATE] Moving block: Addr=0x99c4f1230a | OldSet=3 → NewSet=1955 | Way=4
[CEASER][VICTIM] Set=1955 | VictimWay=15 | Replacing Addr=0xf5cd59c55a | LRU=15
[CEASER][MIGRATE] Moving block: Addr=0xbfd401e1bd | OldSet=3 → NewSet=2158 | Way=5
[CEASER][VICTIM] Set=2158 | VictimWay=15 | Replacing Addr=0xf5cd59c55a | LRU=15
[CEASER][MIGRATE] Moving block: Addr=0xf7f4ea30b0 | OldSet=3 → NewSet=2344 | Way=6
[CEASER][VICTIM] Set=2344 | VictimWay=1 | Replacing Addr=0x2b4cc07747 | LRU=15
[CEASER][MIGRATE] Moving block: Addr=0x2b4cc0aef2 | OldSet=3 → NewSet=2910 | Way=7
[CEASER][VICTIM] Set=2910 | VictimWay=8 | Replacing Addr=0x2b4cc096d9 | LRU=15
[CEASER][MIGRATE] Moving block: Addr=0xa00d791821 | OldSet=3 → NewSet=2214 | Way=8
[CEASER][VICTIM] Set=2214 | VictimWay=2 | Replacing Addr=0xf7f4ea6308 | LRU=15
[CEASER][MIGRATE] Moving block: Addr=0xa00d791e74 | OldSet=3 → NewSet=2028 | Way=9
[CEASER][VICTIM] Set=2028 | VictimWay=7 | Replacing Addr=0x2b4cc08433 | LRU=15
[CEASER][MIGRATE] Moving block: Addr=0x60a69baf06 | OldSet=3 → NewSet=513 | Way=10
[CEASER][VICTIM] Set=513 | VictimWay=15 | Replacing Addr=0xf5cd59c55a | LRU=15
[CEASER][MIGRATE] Moving block: Addr=0x95eea1c80a | OldSet=3 → NewSet=1320 | Way=11
[CEASER][VICTIM] Set=1320 | VictimWay=13 | Replacing Addr=0xf5cd59c55a | LRU=13
[CEASER][MIGRATE] Moving block: Addr=0x95eea1ce5f | OldSet=3 → NewSet=2658 | Way=12
[CEASER][VICTIM] Set=2658 | VictimWay=13 | Replacing Addr=0xf5cd59c55a | LRU=13
[CEASER][MIGRATE] Moving block: Addr=0x95eea1d039 | OldSet=3 → NewSet=3645 | Way=13
[CEASER][VICTIM] Set=3645 | VictimWay=2 | Replacing Addr=0xf7f4ea5da7 | LRU=15
[CEASER][MIGRATE] Moving block: Addr=0x95eea1e47f | OldSet=3 → NewSet=2592 | Way=14
[CEASER][VICTIM] Set=2592 | VictimWay=14 | Replacing Addr=0xf5cd59c55a | LRU=14
[CEASER][MIGRATE] Moving block: Addr=0x95eea1fa19 | OldSet=3 → NewSet=3711 | Way=15
[CEASER][VICTIM] Set=3711 | VictimWay=1 | Replacing Addr=0xf7f4ea5473 | LRU=15
[CEASER][REKEY] Rekeying Set 4 → Epoch 1 at cycle 100000
[CEASER][MIGRATE] Moving block: Addr=0x95eea1edde | OldSet=4 → NewSet=2386 | Way=0
[CEASER][VICTIM] Set=2386 | VictimWay=9 | Replacing Addr=0x14698f13d3 | LRU=15
[CEASER][MIGRATE] Moving block: Addr=0x99c4f1008b | OldSet=4 → NewSet=1171 | Way=1
[CEASER][VICTIM] Set=1171 | VictimWay=12 | Replacing Addr=0x95eea1d133 | LRU=15
[CEASER][MIGRATE] Moving block: Addr=0x99c4f118b8 | OldSet=4 → NewSet=3974 | Way=2
[CEASER][VICTIM] Set=3974 | VictimWay=5 | Replacing Addr=0x26542a9e89 | LRU=15
[CEASER][MIGRATE] Moving block: Addr=0x99c4f11eed | OldSet=4 → NewSet=204 | Way=3
[CEASER][VICTIM] Set=204 | VictimWay=7 | Replacing Addr=0x26542a9f34 | LRU=15
[CEASER][MIGRATE] Moving block: Addr=0x99c4f12aab | OldSet=4 → NewSet=1233 | Way=4
[CEASER][VICTIM] Set=1233 | VictimWay=0 | Replacing Addr=0x95eea1eaf4 | LRU=15
[CEASER][MIGRATE] Moving block: Addr=0x37b6a17e68 | OldSet=4 → NewSet=2741 | Way=5
[CEASER][VICTIM] Set=2741 | VictimWay=11 | Replacing Addr=0x95eea21915 | LRU=15
[CEASER][MIGRATE] Moving block: Addr=0xf7f4ea3911 | OldSet=4 → NewSet=2650 | Way=6
[CEASER][VICTIM] Set=2650 | VictimWay=14 | Replacing Addr=0x95eea1eeeb | LRU=15
[CEASER][MIGRATE] Moving block: Addr=0xf7f4ea3f44 | OldSet=4 → NewSet=1296 | Way=7
[CEASER][VICTIM] Set=1296 | VictimWay=11 | Replacing Addr=0x95eea1bbe7 | LRU=15
[CEASER][MIGRATE] Moving block: Addr=0x2b4cc08d73 | OldSet=4 → NewSet=2158 | Way=8
[CEASER][VICTIM] Set=2158 | VictimWay=4 | Replacing Addr=0x26542aa38f | LRU=15
[CEASER][MIGRATE] Moving block: Addr=0x2b4cc08b26 | OldSet=4 → NewSet=1828 | Way=9
[CEASER][VICTIM] Set=1828 | VictimWay=14 | Replacing Addr=0xf5cd59c55a | LRU=14
[CEASER][MIGRATE] Moving block: Addr=0x2b4cc09315 | OldSet=4 → NewSet=3121 | Way=10
[CEASER][VICTIM] Set=3121 | VictimWay=1 | Replacing Addr=0x95eea1f5bb | LRU=15
[CEASER][MIGRATE] Moving block: Addr=0x2b4cc09540 | OldSet=4 → NewSet=891 | Way=11
[CEASER][VICTIM] Set=891 | VictimWay=3 | Replacing Addr=0x99c4f11953 | LRU=15
[CEASER][MIGRATE] Moving block: Addr=0x2b4cc0a753 | OldSet=4 → NewSet=2092 | Way=12
[CEASER][VICTIM] Set=2092 | VictimWay=4 | Replacing Addr=0xb8c2ee503c | LRU=15
[CEASER][MIGRATE] Moving block: Addr=0x3a8818b02e | OldSet=4 → NewSet=2825 | Way=13
[CEASER][VICTIM] Set=2825 | VictimWay=10 | Replacing Addr=0xa00d791cba | LRU=15
[CEASER][MIGRATE] Moving block: Addr=0x3a8818b67b | OldSet=4 → NewSet=1091 | Way=14
[CEASER][VICTIM] Set=1091 | VictimWay=11 | Replacing Addr=0x95eea1cd2c | LRU=15
[CEASER][MIGRATE] Moving block: Addr=0x95eea1eb8b | OldSet=4 → NewSet=1560 | Way=15
[CEASER][VICTIM] Set=1560 | VictimWay=1 | Replacing Addr=0x99c4f100ed | LRU=15
[CEASER][REKEY] Rekeying Set 5 → Epoch 1 at cycle 120000
[CEASER][MIGRATE] Moving block: Addr=0xa3a0df3038 | OldSet=5 → NewSet=3076 | Way=0
[CEASER][VICTIM] Set=3076 | VictimWay=6 | Replacing Addr=0xf7f4ea35c3 | LRU=15
[CEASER][MIGRATE] Moving block: Addr=0xa3a0df366d | OldSet=5 → NewSet=846 | Way=1
[CEASER][VICTIM] Set=846 | VictimWay=15 | Replacing Addr=0x99c4f11382 | LRU=15
[CEASER][MIGRATE] Moving block: Addr=0x2b4cc07e2d | OldSet=5 → NewSet=162 | Way=2
[CEASER][VICTIM] Set=162 | VictimWay=12 | Replacing Addr=0xf5cd59c55a | LRU=12
[CEASER][MIGRATE] Moving block: Addr=0x26542a97db | OldSet=5 → NewSet=4014 | Way=3
[CEASER][VICTIM] Set=4014 | VictimWay=15 | Replacing Addr=0xf5cd59c55a | LRU=15
[CEASER][MIGRATE] Moving block: Addr=0x95eea208ae | OldSet=5 → NewSet=998 | Way=4
[CEASER][VICTIM] Set=998 | VictimWay=14 | Replacing Addr=0x2b4cc08f4b | LRU=15
[CEASER][MIGRATE] Moving block: Addr=0x95eea20efb | OldSet=5 → NewSet=3244 | Way=5
[CEASER][VICTIM] Set=3244 | VictimWay=9 | Replacing Addr=0xf7f4ea4250 | LRU=15
[CEASER][MIGRATE] Moving block: Addr=0x95eea2109d | OldSet=5 → NewSet=2291 | Way=6
[CEASER][VICTIM] Set=2291 | VictimWay=12 | Replacing Addr=0xf5cd59c55a | LRU=12
[CEASER][MIGRATE] Moving block: Addr=0x95eea216c8 | OldSet=5 → NewSet=1977 | Way=7
[CEASER][VICTIM] Set=1977 | VictimWay=12 | Replacing Addr=0xf5cd59c55a | LRU=12
[CEASER][MIGRATE] Moving block: Addr=0x99c4f0f06a | OldSet=5 → NewSet=3473 | Way=8
[CEASER][VICTIM] Set=3473 | VictimWay=12 | Replacing Addr=0x99c4f102c7 | LRU=15
[CEASER][MIGRATE] Moving block: Addr=0x99c4f0f63f | OldSet=5 → NewSet=731 | Way=9
[CEASER][VICTIM] Set=731 | VictimWay=12 | Replacing Addr=0xf7f4ea5a17 | LRU=15
[CEASER][MIGRATE] Moving block: Addr=0x37b6a18b63 | OldSet=5 → NewSet=3379 | Way=10
[CEASER][VICTIM] Set=3379 | VictimWay=3 | Replacing Addr=0x37b6a1846d | LRU=15
[CEASER][MIGRATE] Moving block: Addr=0x37b6a1a143 | OldSet=5 → NewSet=3441 | Way=11
[CEASER][VICTIM] Set=3441 | VictimWay=15 | Replacing Addr=0xf5cd59c55a | LRU=15
[CEASER][REKEY] Rekeying Set 6 → Epoch 1 at cycle 140000
[CEASER][MIGRATE] Moving block: Addr=0xa3a0df2d94 | OldSet=6 → NewSet=2734 | Way=0
[CEASER][VICTIM] Set=2734 | VictimWay=14 | Replacing Addr=0x2b4cc0a1d2 | LRU=15
[CEASER][MIGRATE] Moving block: Addr=0xa3a0df33f2 | OldSet=6 → NewSet=3825 | Way=1
[CEASER][VICTIM] Set=3825 | VictimWay=13 | Replacing Addr=0xf5cd59c55a | LRU=13
[CEASER][MIGRATE] Moving block: Addr=0x26542a9411 | OldSet=6 → NewSet=3419 | Way=2
[CEASER][VICTIM] Set=3419 | VictimWay=6 | Replacing Addr=0x2b4cc09a7c | LRU=15
[CEASER][MIGRATE] Moving block: Addr=0x26542aa057 | OldSet=6 → NewSet=2374 | Way=3
[CEASER][VICTIM] Set=2374 | VictimWay=13 | Replacing Addr=0x37b6a18dcf | LRU=15
[CEASER][MIGRATE] Moving block: Addr=0x95eea20d31 | OldSet=6 → NewSet=3673 | Way=4
[CEASER][VICTIM] Set=3673 | VictimWay=3 | Replacing Addr=0xa3a0df416e | LRU=15
[CEASER][MIGRATE] Moving block: Addr=0x95eea21357 | OldSet=6 → NewSet=2566 | Way=5
[CEASER][VICTIM] Set=2566 | VictimWay=13 | Replacing Addr=0x2b4cc09ac3 | LRU=15
[CEASER][MIGRATE] Moving block: Addr=0x95eea22144 | OldSet=6 → NewSet=337 | Way=6
[CEASER][VICTIM] Set=337 | VictimWay=12 | Replacing Addr=0xf5cd59c55a | LRU=12
[CEASER][MIGRATE] Moving block: Addr=0x99c4f0f3a0 | OldSet=6 → NewSet=3940 | Way=7
[CEASER][VICTIM] Set=3940 | VictimWay=12 | Replacing Addr=0x37b6a19d5e | LRU=15
[CEASER][MIGRATE] Moving block: Addr=0x37b6a1909a | OldSet=6 → NewSet=1235 | Way=8
[CEASER][VICTIM] Set=1235 | VictimWay=11 | Replacing Addr=0xf5cd59c55a | LRU=11
[CEASER][MIGRATE] Moving block: Addr=0x37b6a1a289 | OldSet=6 → NewSet=3972 | Way=9
[CEASER][VICTIM] Set=3972 | VictimWay=8 | Replacing Addr=0x2b4cc0998d | LRU=15
[CEASER][MIGRATE] Moving block: Addr=0x37b6a1a4dc | OldSet=6 → NewSet=206 | Way=10
[CEASER][VICTIM] Set=206 | VictimWay=12 | Replacing Addr=0x2b4cc08656 | LRU=15
[CEASER][REKEY] Rekeying Set 7 → Epoch 1 at cycle 160000
[CEASER][MIGRATE] Moving block: Addr=0x99c4f12f34 | OldSet=7 → NewSet=2414 | Way=0
[CEASER][VICTIM] Set=2414 | VictimWay=15 | Replacing Addr=0xf5cd59c55a | LRU=15
[CEASER][MIGRATE] Moving block: Addr=0x37b6a17bf7 | OldSet=7 → NewSet=1802 | Way=1
[CEASER][VICTIM] Set=1802 | VictimWay=0 | Replacing Addr=0x95eea1bb4d | LRU=15
[CEASER][MIGRATE] Moving block: Addr=0xf7f4ea3adb | OldSet=7 → NewSet=2223 | Way=2
[CEASER][VICTIM] Set=2223 | VictimWay=3 | Replacing Addr=0x2b4cc0770f | LRU=15
[CEASER][MIGRATE] Moving block: Addr=0xf7f4ea444a | OldSet=7 → NewSet=2119 | Way=3
[CEASER][VICTIM] Set=2119 | VictimWay=11 | Replacing Addr=0x95eea1d3a6 | LRU=15
[CEASER][MIGRATE] Moving block: Addr=0xf7f4ea3c8e | OldSet=7 → NewSet=2021 | Way=4
[CEASER][VICTIM] Set=2021 | VictimWay=14 | Replacing Addr=0xf5cd59c55a | LRU=14
[CEASER][MIGRATE] Moving block: Addr=0xf7f4ea5a2c | OldSet=7 → NewSet=3096 | Way=5
[CEASER][VICTIM] Set=3096 | VictimWay=15 | Replacing Addr=0xf5cd59c55a | LRU=15
[CEASER][MIGRATE] Moving block: Addr=0xf7f4ea5c79 | OldSet=7 → NewSet=850 | Way=6
[CEASER][VICTIM] Set=850 | VictimWay=2 | Replacing Addr=0x2b4cc073bf | LRU=15
[CEASER][MIGRATE] Moving block: Addr=0x95eea1baa5 | OldSet=7 → NewSet=2829 | Way=7
[CEASER][VICTIM] Set=2829 | VictimWay=2 | Replacing Addr=0x512a98dc5c | LRU=15
[CEASER][MIGRATE] Moving block: Addr=0x95eea1c261 | OldSet=7 → NewSet=1199 | Way=8
[CEASER][VICTIM] Set=1199 | VictimWay=4 | Replacing Addr=0x26542aa038 | LRU=15
[CEASER][MIGRATE] Moving block: Addr=0x95eea1c434 | OldSet=7 → NewSet=3045 | Way=9
[CEASER][VICTIM] Set=3045 | VictimWay=13 | Replacing Addr=0xf5cd59c55a | LRU=13
[CEASER][MIGRATE] Moving block: Addr=0x95eea1e841 | OldSet=7 → NewSet=1261 | Way=10
[CEASER][VICTIM] Set=1261 | VictimWay=5 | Replacing Addr=0xb1bc79340e | LRU=15
[CEASER][MIGRATE] Moving block: Addr=0x95eea1ee14 | OldSet=7 → NewSet=2983 | Way=11
[CEASER][VICTIM] Set=2983 | VictimWay=6 | Replacing Addr=0xb1bc7933e6 | LRU=15
[CEASER][MIGRATE] Moving block: Addr=0x95eea1f627 | OldSet=7 → NewSet=178 | Way=12
[CEASER][VICTIM] Set=178 | VictimWay=7 | Replacing Addr=0x95eea1d5f8 | LRU=15
[CEASER][MIGRATE] Moving block: Addr=0x99c4f10514 | OldSet=7 → NewSet=2348 | Way=13
[CEASER][VICTIM] Set=2348 | VictimWay=15 | Replacing Addr=0xf5cd59c55a | LRU=15
[CEASER][MIGRATE] Moving block: Addr=0x99c4f11b72 | OldSet=7 → NewSet=3443 | Way=14
[CEASER][VICTIM] Set=3443 | VictimWay=5 | Replacing Addr=0x95eea1bc7f | LRU=15
[CEASER][MIGRATE] Moving block: Addr=0x99c4f11d27 | OldSet=7 → NewSet=569 | Way=15
[CEASER][VICTIM] Set=569 | VictimWay=9 | Replacing Addr=0x3a8818b2d6 | LRU=15
[CEASER][REKEY] Rekeying Set 8 → Epoch 1 at cycle 180000
[CEASER][MIGRATE] Moving block: Addr=0x95eea1e66a | OldSet=8 → NewSet=348 | Way=0
[CEASER][VICTIM] Set=348 | VictimWay=1 | Replacing Addr=0xbfd401e253 | LRU=15
[CEASER][MIGRATE] Moving block: Addr=0x95eea1fe59 | OldSet=8 → NewSet=2633 | Way=1
[CEASER][VICTIM] Set=2633 | VictimWay=12 | Replacing Addr=0xf5cd59c55a | LRU=12
[CEASER][MIGRATE] Moving block: Addr=0x99c4f10d6a | OldSet=8 → NewSet=983 | Way=2
[CEASER][VICTIM] Set=983 | VictimWay=13 | Replacing Addr=0x99c4f12829 | LRU=15
[CEASER][MIGRATE] Moving block: Addr=0x99c4f11559 | OldSet=8 → NewSet=2242 | Way=3
[CEASER][VICTIM] Set=2242 | VictimWay=13 | Replacing Addr=0xf5cd59c55a | LRU=13
[CEASER][MIGRATE] Moving block: Addr=0x99c4f1274a | OldSet=8 → NewSet=917 | Way=4
[CEASER][VICTIM] Set=917 | VictimWay=6 | Replacing Addr=0x95eea1f8ee | LRU=15
[CEASER][MIGRATE] Moving block: Addr=0x37b6a175dc | OldSet=8 → NewSet=699 | Way=5
[CEASER][VICTIM] Set=699 | VictimWay=11 | Replacing Addr=0xf5cd59c55a | LRU=11
[CEASER][MIGRATE] Moving block: Addr=0xf7f4ea34f0 | OldSet=8 → NewSet=3358 | Way=6
[CEASER][VICTIM] Set=3358 | VictimWay=14 | Replacing Addr=0x95eea1e4c2 | LRU=15
[CEASER][MIGRATE] Moving block: Addr=0xf7f4ea5252 | OldSet=8 → NewSet=1763 | Way=7
[CEASER][VICTIM] Set=1763 | VictimWay=0 | Replacing Addr=0x95eea1e627 | LRU=15
[CEASER][MIGRATE] Moving block: Addr=0xf7f4ea4c34 | OldSet=8 → NewSet=700 | Way=8
[CEASER][VICTIM] Set=700 | VictimWay=15 | Replacing Addr=0xf5cd59c55a | LRU=15
[CEASER][MIGRATE] Moving block: Addr=0xf7f4ea6041 | OldSet=8 → NewSet=3508 | Way=9
[CEASER][VICTIM] Set=3508 | VictimWay=12 | Replacing Addr=0xf5cd59c55a | LRU=12
[CEASER][MIGRATE] Moving block: Addr=0x2b4cc098a1 | OldSet=8 → NewSet=1087 | Way=10
[CEASER][VICTIM] Set=1087 | VictimWay=9 | Replacing Addr=0x99c4f12169 | LRU=15
[CEASER][MIGRATE] Moving block: Addr=0x2b4cc0aab2 | OldSet=8 → NewSet=3944 | Way=11
[CEASER][VICTIM] Set=3944 | VictimWay=13 | Replacing Addr=0xf5cd59c55a | LRU=13
[CEASER][MIGRATE] Moving block: Addr=0xa00d791c61 | OldSet=8 → NewSet=3216 | Way=12
[CEASER][VICTIM] Set=3216 | VictimWay=7 | Replacing Addr=0x95eea20670 | LRU=15
[CEASER][MIGRATE] Moving block: Addr=0x292768c62a | OldSet=8 → NewSet=2103 | Way=13
[CEASER][VICTIM] Set=2103 | VictimWay=12 | Replacing Addr=0x99c4f11e77 | LRU=15
[CEASER][MIGRATE] Moving block: Addr=0x95eea1d22c | OldSet=8 → NewSet=1345 | Way=14
[CEASER][VICTIM] Set=1345 | VictimWay=15 | Replacing Addr=0xf5cd59c55a | LRU=15
[CEASER][MIGRATE] Moving block: Addr=0x95eea1e03f | OldSet=8 → NewSet=3606 | Way=15
[CEASER][VICTIM] Set=3606 | VictimWay=6 | Replacing Addr=0x99c4f1151f | LRU=15
[CEASER][REKEY] Rekeying Set 9 → Epoch 1 at cycle 200000
[CEASER][MIGRATE] Moving block: Addr=0xa3a0df3b8c | OldSet=9 → NewSet=1034 | Way=0
[CEASER][VICTIM] Set=1034 | VictimWay=1 | Replacing Addr=0xf7f4ea58f5 | LRU=15
[CEASER][MIGRATE] Moving block: Addr=0x2b4cc073cc | OldSet=9 → NewSet=2022 | Way=1
[CEASER][VICTIM] Set=2022 | VictimWay=14 | Replacing Addr=0xf5cd59c55a | LRU=14
[CEASER][MIGRATE] Moving block: Addr=0x2b4cc07599 | OldSet=9 → NewSet=2220 | Way=2
[CEASER][VICTIM] Set=2220 | VictimWay=10 | Replacing Addr=0x95eea23055 | LRU=15
[CEASER][MIGRATE] Moving block: Addr=0x86af5ff7b7 | OldSet=9 → NewSet=2096 | Way=3
[CEASER][VICTIM] Set=2096 | VictimWay=14 | Replacing Addr=0xf5cd59c55a | LRU=14
[CEASER][MIGRATE] Moving block: Addr=0xb1bc79339e | OldSet=9 → NewSet=36 | Way=4
[CEASER][VICTIM] Set=36 | VictimWay=11 | Replacing Addr=0x99c4f10d2d | LRU=15
[CEASER][MIGRATE] Moving block: Addr=0x26542a9a3a | OldSet=9 → NewSet=2282 | Way=5
[CEASER][VICTIM] Set=2282 | VictimWay=11 | Replacing Addr=0xf5cd59c55a | LRU=11
[CEASER][MIGRATE] Moving block: Addr=0x26542a9c6f | OldSet=9 → NewSet=1952 | Way=6
[CEASER][VICTIM] Set=1952 | VictimWay=15 | Replacing Addr=0x37b6a185dc | LRU=15
[CEASER][MIGRATE] Moving block: Addr=0x42194c5f7f | OldSet=9 → NewSet=995 | Way=7
[CEASER][VICTIM] Set=995 | VictimWay=10 | Replacing Addr=0x95eea234bb | LRU=15
[CEASER][MIGRATE] Moving block: Addr=0x95eea21b29 | OldSet=9 → NewSet=253 | Way=8
[CEASER][VICTIM] Set=253 | VictimWay=15 | Replacing Addr=0x99c4f0fe6a | LRU=15
[CEASER][MIGRATE] Moving block: Addr=0x95eea22f6f | OldSet=9 → NewSet=1248 | Way=9
[CEASER][VICTIM] Set=1248 | VictimWay=6 | Replacing Addr=0x3a8818b1eb | LRU=15
[CEASER][MIGRATE] Moving block: Addr=0x95eea23109 | OldSet=9 → NewSet=191 | Way=10
[CEASER][VICTIM] Set=191 | VictimWay=13 | Replacing Addr=0xf5cd59c55a | LRU=13
[CEASER][MIGRATE] Moving block: Addr=0x95eea2375c | OldSet=9 → NewSet=4085 | Way=11
[CEASER][VICTIM] Set=4085 | VictimWay=14 | Replacing Addr=0xf5cd59c55a | LRU=14
[CEASER][MIGRATE] Moving block: Addr=0x99c4f0fbde | OldSet=9 → NewSet=1439 | Way=12
[CEASER][VICTIM] Set=1439 | VictimWay=14 | Replacing Addr=0xf7f4ea480d | LRU=15
[CEASER][MIGRATE] Moving block: Addr=0x99c4f0fd8b | OldSet=9 → NewSet=2773 | Way=13
[CEASER][VICTIM] Set=2773 | VictimWay=2 | Replacing Addr=0xf7f4ea49b0 | LRU=15
[CEASER][MIGRATE] Moving block: Addr=0x37b6a19eb1 | OldSet=9 → NewSet=354 | Way=14
[CEASER][VICTIM] Set=354 | VictimWay=12 | Replacing Addr=0xf7f4ea6f2b | LRU=15
[CEASER][MIGRATE] Moving block: Addr=0x37b6a1aca2 | OldSet=9 → NewSet=2613 | Way=15
[CEASER][VICTIM] Set=2613 | VictimWay=12 | Replacing Addr=0xf5cd59c55a | LRU=12
[CEASER][REKEY] Rekeying Set 10 → Epoch 1 at cycle 220001
[CEASER][MIGRATE] Moving block: Addr=0x99c4f0fe41 | OldSet=10 → NewSet=2080 | Way=0
[CEASER][VICTIM] Set=2080 | VictimWay=11 | Replacing Addr=0xf5cd59c55a | LRU=11
[CEASER][MIGRATE] Moving block: Addr=0x37b6a1a93d | OldSet=10 → NewSet=1930 | Way=1
[CEASER][VICTIM] Set=1930 | VictimWay=12 | Replacing Addr=0x2b4cc0a65f | LRU=15
[CEASER][MIGRATE] Moving block: Addr=0x37b6a1af68 | OldSet=10 → NewSet=2240 | Way=2
[CEASER][VICTIM] Set=2240 | VictimWay=12 | Replacing Addr=0x512a98dde9 | LRU=15
[CEASER][MIGRATE] Moving block: Addr=0x37b6a1b10e | OldSet=10 → NewSet=3231 | Way=3
[CEASER][VICTIM] Set=3231 | VictimWay=13 | Replacing Addr=0xf5cd59c55a | LRU=13
[CEASER][MIGRATE] Moving block: Addr=0xa3a0df3e13 | OldSet=10 → NewSet=2485 | Way=4
[CEASER][VICTIM] Set=2485 | VictimWay=14 | Replacing Addr=0x37b6a19fbc | LRU=15
[CEASER][MIGRATE] Moving block: Addr=0xa3a0df4082 | OldSet=10 → NewSet=2397 | Way=5
[CEASER][VICTIM] Set=2397 | VictimWay=7 | Replacing Addr=0x2b4cc08283 | LRU=15
[CEASER][MIGRATE] Moving block: Addr=0x86af5ff47d | OldSet=10 → NewSet=2757 | Way=6
[CEASER][VICTIM] Set=2757 | VictimWay=15 | Replacing Addr=0xf5cd59c55a | LRU=15
[CEASER][MIGRATE] Moving block: Addr=0x26542a99f0 | OldSet=10 → NewSet=2591 | Way=7
[CEASER][VICTIM] Set=2591 | VictimWay=3 | Replacing Addr=0x2b4cc09600 | LRU=15
[CEASER][MIGRATE] Moving block: Addr=0x26542a9fa5 | OldSet=10 → NewSet=1365 | Way=8
[CEASER][VICTIM] Set=1365 | VictimWay=7 | Replacing Addr=0x2b4cc0a5ae | LRU=15
[CEASER][MIGRATE] Moving block: Addr=0x95eea218e3 | OldSet=10 → NewSet=520 | Way=9
[CEASER][VICTIM] Set=520 | VictimWay=1 | Replacing Addr=0xf7f4ea45c2 | LRU=15
[CEASER][MIGRATE] Moving block: Addr=0x95eea21eb6 | OldSet=10 → NewSet=3394 | Way=10
[CEASER][VICTIM] Set=3394 | VictimWay=14 | Replacing Addr=0x2b4cc088d9 | LRU=15
[CEASER][MIGRATE] Moving block: Addr=0x95eea22af0 | OldSet=10 → NewSet=2399 | Way=11
[CEASER][VICTIM] Set=2399 | VictimWay=12 | Replacing Addr=0xf5cd59c55a | LRU=12
[CEASER][MIGRATE] Moving block: Addr=0x95eea22ca5 | OldSet=10 → NewSet=1557 | Way=12
[CEASER][VICTIM] Set=1557 | VictimWay=3 | Replacing Addr=0xa3a0df258c | LRU=15
[CEASER][MIGRATE] Moving block: Addr=0x95eea232c3 | OldSet=10 → NewSet=586 | Way=13
[CEASER][VICTIM] Set=586 | VictimWay=5 | Replacing Addr=0xa00d791a16 | LRU=15
[CEASER][MIGRATE] Moving block: Addr=0x95eea23496 | OldSet=10 → NewSet=3328 | Way=14
[CEASER][VICTIM] Set=3328 | VictimWay=9 | Replacing Addr=0x2b4cc0ad78 | LRU=15
[CEASER][MIGRATE] Moving block: Addr=0x99c4f0f814 | OldSet=10 → NewSet=1898 | Way=15
[CEASER][VICTIM] Set=1898 | VictimWay=12 | Replacing Addr=0xf5cd59c55a | LRU=12
[CEASER][REKEY] Rekeying Set 11 → Epoch 1 at cycle 240001
[CEASER][MIGRATE] Moving block: Addr=0x95eea1d7b3 | OldSet=11 → NewSet=2302 | Way=0
[CEASER][VICTIM] Set=2302 | VictimWay=5 | Replacing Addr=0x95eea1e3fe | LRU=15
[CEASER][MIGRATE] Moving block: Addr=0xbfd401e637 | OldSet=11 → NewSet=3757 | Way=1
[CEASER][VICTIM] Set=3757 | VictimWay=15 | Replacing Addr=0xf5cd59c55a | LRU=15
[CEASER][MIGRATE] Moving block: Addr=0x95eea1fd93 | OldSet=11 → NewSet=2236 | Way=2
[CEASER][VICTIM] Set=2236 | VictimWay=6 | Replacing Addr=0x95eea1f44c | LRU=15
[CEASER][MIGRATE] Moving block: Addr=0xbfd401f851 | OldSet=11 → NewSet=2802 | Way=3
[CEASER][VICTIM] Set=2802 | VictimWay=14 | Replacing Addr=0x2b4cc0ad64 | LRU=15
[CEASER][MIGRATE] Moving block: Addr=0x99c4f108f5 | OldSet=11 → NewSet=3688 | Way=4
[CEASER][VICTIM] Set=3688 | VictimWay=14 | Replacing Addr=0xf5cd59c55a | LRU=14
[CEASER][MIGRATE] Moving block: Addr=0x99c4f10ea0 | OldSet=11 → NewSet=290 | Way=5
[CEASER][VICTIM] Set=290 | VictimWay=15 | Replacing Addr=0xf5cd59c55a | LRU=15
[CEASER][MIGRATE] Moving block: Addr=0x99c4f11693 | OldSet=11 → NewSet=2615 | Way=6
[CEASER][VICTIM] Set=2615 | VictimWay=0 | Replacing Addr=0x95eea1ce92 | LRU=15
[CEASER][MIGRATE] Moving block: Addr=0xbfd401fe04 | OldSet=11 → NewSet=1464 | Way=7
[CEASER][VICTIM] Set=1464 | VictimWay=10 | Replacing Addr=0xa00d791a0a | LRU=15
[CEASER][MIGRATE] Moving block: Addr=0x99c4f12480 | OldSet=11 → NewSet=352 | Way=8
[CEASER][VICTIM] Set=352 | VictimWay=13 | Replacing Addr=0xf5cd59c55a | LRU=13
[CEASER][MIGRATE] Moving block: Addr=0x37b6a17616 | OldSet=11 → NewSet=78 | Way=9
[CEASER][VICTIM] Set=78 | VictimWay=1 | Replacing Addr=0x95eea1fde6 | LRU=15
[CEASER][MIGRATE] Moving block: Addr=0xbfd401e062 | OldSet=11 → NewSet=487 | Way=10
[CEASER][VICTIM] Set=487 | VictimWay=2 | Replacing Addr=0x2b4cc075e3 | LRU=15
[CEASER][MIGRATE] Moving block: Addr=0x8d77fe6df6 | OldSet=11 → NewSet=1459 | Way=11
[CEASER][VICTIM] Set=1459 | VictimWay=2 | Replacing Addr=0x95eea1c834 | LRU=15
[CEASER][MIGRATE] Moving block: Addr=0xf7f4ea49ab | OldSet=11 → NewSet=3843 | Way=12
[CEASER][VICTIM] Set=3843 | VictimWay=3 | Replacing Addr=0x95eea1eb9c | LRU=15
[CEASER][MIGRATE] Moving block: Addr=0xf7f4ea5198 | OldSet=11 → NewSet=1046 | Way=13
[CEASER][VICTIM] Set=1046 | VictimWay=14 | Replacing Addr=0xf5cd59c55a | LRU=14
[CEASER][MIGRATE] Moving block: Addr=0xf7f4ea4ffe | OldSet=11 → NewSet=73 | Way=14
[CEASER][VICTIM] Set=73 | VictimWay=13 | Replacing Addr=0x3a8818b184 | LRU=15
[CEASER][MIGRATE] Moving block: Addr=0x95eea1e5a0 | OldSet=11 → NewSet=937 | Way=15
[CEASER][VICTIM] Set=937 | VictimWay=11 | Replacing Addr=0xa3a0df2853 | LRU=15
[CEASER][REKEY] Rekeying Set 12 → Epoch 1 at cycle 260001
[CEASER][MIGRATE] Moving block: Addr=0x99c4f11967 | OldSet=12 → NewSet=1551 | Way=0
[CEASER][VICTIM] Set=1551 | VictimWay=15 | Replacing Addr=0xf5cd59c55a | LRU=15
[CEASER][MIGRATE] Moving block: Addr=0x99c4f11f32 | OldSet=12 → NewSet=2373 | Way=1
[CEASER][VICTIM] Set=2373 | VictimWay=15 | Replacing Addr=0xf5cd59c55a | LRU=15
[CEASER][MIGRATE] Moving block: Addr=0x14698f13d7 | OldSet=12 → NewSet=857 | Way=2
[CEASER][VICTIM] Set=857 | VictimWay=5 | Replacing Addr=0x26542a985c | LRU=15
[CEASER][MIGRATE] Moving block: Addr=0x99c4f12d21 | OldSet=12 → NewSet=530 | Way=3
[CEASER][VICTIM] Set=530 | VictimWay=15 | Replacing Addr=0xbfd401fd64 | LRU=15
[CEASER][MIGRATE] Moving block: Addr=0x37b6a179e2 | OldSet=12 → NewSet=3190 | Way=4
[CEASER][VICTIM] Set=3190 | VictimWay=14 | Replacing Addr=0xf5cd59c55a | LRU=14
[CEASER][MIGRATE] Moving block: Addr=0xf7f4ea38ce | OldSet=12 → NewSet=979 | Way=5
[CEASER][VICTIM] Set=979 | VictimWay=3 | Replacing Addr=0x99c4f11051 | LRU=15
[CEASER][MIGRATE] Moving block: Addr=0xf7f4ea3e9b | OldSet=12 → NewSet=3225 | Way=6
[CEASER][VICTIM] Set=3225 | VictimWay=13 | Replacing Addr=0x99c4f10f8a | LRU=15
[CEASER][MIGRATE] Moving block: Addr=0xf7f4ea5839 | OldSet=12 → NewSet=1892 | Way=7
[CEASER][VICTIM] Set=1892 | VictimWay=4 | Replacing Addr=0x99c4f1155c | LRU=15
[CEASER][MIGRATE] Moving block: Addr=0xf7f4ea5e6c | OldSet=12 → NewSet=2094 | Way=8
[CEASER][VICTIM] Set=2094 | VictimWay=13 | Replacing Addr=0x99c4f112b4 | LRU=15
[CEASER][MIGRATE] Moving block: Addr=0xf7f4ea6c7f | OldSet=12 → NewSet=889 | Way=9
[CEASER][VICTIM] Set=889 | VictimWay=13 | Replacing Addr=0xf5cd59c55a | LRU=13
[CEASER][MIGRATE] Moving block: Addr=0x2b4cc08af9 | OldSet=12 → NewSet=3757 | Way=10
[CEASER][VICTIM] Set=3757 | VictimWay=6 | Replacing Addr=0x42194c5eb8 | LRU=15
[CEASER][MIGRATE] Moving block: Addr=0x2b4cc092ca | OldSet=12 → NewSet=1464 | Way=11
[CEASER][VICTIM] Set=1464 | VictimWay=2 | Replacing Addr=0x99c4f11332 | LRU=15
[CEASER][MIGRATE] Moving block: Addr=0x2b4cc0949f | OldSet=12 → NewSet=2802 | Way=12
[CEASER][VICTIM] Set=2802 | VictimWay=6 | Replacing Addr=0xbfd401fc4d | LRU=15
[CEASER][MIGRATE] Moving block: Addr=0x2b4cc0a0d9 | OldSet=12 → NewSet=3823 | Way=13
[CEASER][VICTIM] Set=3823 | VictimWay=11 | Replacing Addr=0xf5cd59c55a | LRU=11
[CEASER][MIGRATE] Moving block: Addr=0x3a8818b1f1 | OldSet=12 → NewSet=640 | Way=14
[CEASER][VICTIM] Set=640 | VictimWay=1 | Replacing Addr=0xbfd401f6c9 | LRU=15
[CEASER][MIGRATE] Moving block: Addr=0x3a8818af97 | OldSet=12 → NewSet=1759 | Way=15
[CEASER][VICTIM] Set=1759 | VictimWay=10 | Replacing Addr=0xf5cd59c55a | LRU=10
[CEASER][REKEY] Rekeying Set 13 → Epoch 1 at cycle 280001
[CEASER][MIGRATE] Moving block: Addr=0xa3a0df31e7 | OldSet=13 → NewSet=1421 | Way=0
[CEASER][VICTIM] Set=1421 | VictimWay=9 | Replacing Addr=0x99c4f12bf0 | LRU=15
[CEASER][MIGRATE] Moving block: Addr=0xa3a0df2f81 | OldSet=13 → NewSet=466 | Way=1
[CEASER][VICTIM] Set=466 | VictimWay=11 | Replacing Addr=0xf5cd59c55a | LRU=11
[CEASER][MIGRATE] Moving block: Addr=0x2b4cc07ff2 | OldSet=13 → NewSet=2347 | Way=2
[CEASER][VICTIM] Set=2347 | VictimWay=12 | Replacing Addr=0x95eea23648 | LRU=15
[CEASER][MIGRATE] Moving block: Addr=0x26542a9604 | OldSet=13 → NewSet=1575 | Way=3
[CEASER][VICTIM] Set=1575 | VictimWay=11 | Replacing Addr=0xf5cd59c55a | LRU=11
[CEASER][MIGRATE] Moving block: Addr=0x95eea20f24 | OldSet=13 → NewSet=1317 | Way=4
[CEASER][VICTIM] Set=1317 | VictimWay=10 | Replacing Addr=0xbfd401e045 | LRU=15
[CEASER][MIGRATE] Moving block: Addr=0x95eea21717 | OldSet=13 → NewSet=3632 | Way=5
[CEASER][VICTIM] Set=3632 | VictimWay=12 | Replacing Addr=0x99c4f0f9ca | LRU=15
[CEASER][MIGRATE] Moving block: Addr=0x99c4f0efd3 | OldSet=13 → NewSet=71 | Way=6
[CEASER][VICTIM] Set=71 | VictimWay=1 | Replacing Addr=0x95eea2353c | LRU=15
[CEASER][MIGRATE] Moving block: Addr=0x99c4f0f1b5 | OldSet=13 → NewSet=1048 | Way=7
[CEASER][VICTIM] Set=1048 | VictimWay=12 | Replacing Addr=0xf7f4ea5076 | LRU=15
[CEASER][MIGRATE] Moving block: Addr=0x99c4f0f7e0 | OldSet=13 → NewSet=2898 | Way=8
[CEASER][VICTIM] Set=2898 | VictimWay=0 | Replacing Addr=0xf7f4ea313c | LRU=15
[CEASER][MIGRATE] Moving block: Addr=0x37b6a18abc | OldSet=13 → NewSet=1210 | Way=9
[CEASER][VICTIM] Set=1210 | VictimWay=13 | Replacing Addr=0xf5cd59c55a | LRU=13
[CEASER][MIGRATE] Moving block: Addr=0x37b6a194da | OldSet=13 → NewSet=229 | Way=10
[CEASER][VICTIM] Set=229 | VictimWay=2 | Replacing Addr=0xf7f4ea5b25 | LRU=15
[CEASER][MIGRATE] Moving block: Addr=0x37b6a1a6c9 | OldSet=13 → NewSet=2994 | Way=11
[CEASER][VICTIM] Set=2994 | VictimWay=3 | Replacing Addr=0x95eea23606 | LRU=15
[CEASER][REKEY] Rekeying Set 14 → Epoch 1 at cycle 300002
[CEASER][MIGRATE] Moving block: Addr=0xa3a0df322d | OldSet=14 → NewSet=1912 | Way=0
[CEASER][VICTIM] Set=1912 | VictimWay=3 | Replacing Addr=0xa3a0df2512 | LRU=15
[CEASER][MIGRATE] Moving block: Addr=0x2b4cc07a6d | OldSet=14 → NewSet=1172 | Way=1
[CEASER][VICTIM] Set=1172 | VictimWay=7 | Replacing Addr=0x2b4cc0a00c | LRU=15
[CEASER][MIGRATE] Moving block: Addr=0x26542a95ce | OldSet=14 → NewSet=1234 | Way=2
[CEASER][VICTIM] Set=1234 | VictimWay=2 | Replacing Addr=0x2b4cc0a5e6 | LRU=15
[CEASER][MIGRATE] Moving block: Addr=0x26542aa188 | OldSet=14 → NewSet=207 | Way=3
[CEASER][VICTIM] Set=207 | VictimWay=6 | Replacing Addr=0xa3a0df3b1d | LRU=15
[CEASER][MIGRATE] Moving block: Addr=0x95eea20abb | OldSet=14 → NewSet=2202 | Way=4
[CEASER][VICTIM] Set=2202 | VictimWay=14 | Replacing Addr=0xf5cd59c55a | LRU=14
[CEASER][MIGRATE] Moving block: Addr=0x95eea21288 | OldSet=14 → NewSet=911 | Way=5
[CEASER][VICTIM] Set=911 | VictimWay=6 | Replacing Addr=0x512a98d907 | LRU=15
[CEASER][MIGRATE] Moving block: Addr=0x95eea214dd | OldSet=14 → NewSet=3269 | Way=6
[CEASER][VICTIM] Set=3269 | VictimWay=2 | Replacing Addr=0x2b4cc090a2 | LRU=15
[CEASER][MIGRATE] Moving block: Addr=0x99c4f0f27f | OldSet=14 → NewSet=1773 | Way=7
[CEASER][VICTIM] Set=1773 | VictimWay=15 | Replacing Addr=0xf5cd59c55a | LRU=15
[CEASER][MIGRATE] Moving block: Addr=0x99c4f0f42a | OldSet=14 → NewSet=2471 | Way=8
[CEASER][VICTIM] Set=2471 | VictimWay=15 | Replacing Addr=0xf5cd59c55a | LRU=15
[CEASER][MIGRATE] Moving block: Addr=0x37b6a18976 | OldSet=14 → NewSet=1615 | Way=9
[CEASER][VICTIM] Set=1615 | VictimWay=4 | Replacing Addr=0x2b4cc083b6 | LRU=15
[CEASER][MIGRATE] Moving block: Addr=0x37b6a18f23 | OldSet=14 → NewSet=2309 | Way=10
[CEASER][VICTIM] Set=2309 | VictimWay=11 | Replacing Addr=0xf7f4ea50cb | LRU=15
[CEASER][MIGRATE] Moving block: Addr=0x37b6a19145 | OldSet=14 → NewSet=3418 | Way=11
[CEASER][VICTIM] Set=3418 | VictimWay=13 | Replacing Addr=0x2b4cc07744 | LRU=15
[CEASER][MIGRATE] Moving block: Addr=0x37b6a19710 | OldSet=14 → NewSet=528 | Way=12
[CEASER][VICTIM] Set=528 | VictimWay=6 | Replacing Addr=0xa3a0df38ec | LRU=15
[CEASER][MIGRATE] Moving block: Addr=0x37b6a1a356 | OldSet=14 → NewSet=1549 | Way=13
[CEASER][VICTIM] Set=1549 | VictimWay=9 | Replacing Addr=0x2b4cc08c37 | LRU=15
[CEASER][REKEY] Rekeying Set 15 → Epoch 1 at cycle 320002
[CEASER][MIGRATE] Moving block: Addr=0x99c4f128be | OldSet=15 → NewSet=4013 | Way=0
[CEASER][VICTIM] Set=4013 | VictimWay=12 | Replacing Addr=0xf5cd59c55a | LRU=12
[CEASER][MIGRATE] Moving block: Addr=0x99c4f12eeb | OldSet=15 → NewSet=231 | Way=1
[CEASER][VICTIM] Set=231 | VictimWay=15 | Replacing Addr=0xf5cd59c55a | LRU=15
[CEASER][MIGRATE] Moving block: Addr=0x37b6a17c7d | OldSet=15 → NewSet=457 | Way=2
[CEASER][VICTIM] Set=457 | VictimWay=6 | Replacing Addr=0x95eea1d78e | LRU=15
[CEASER][MIGRATE] Moving block: Addr=0xf7f4ea3d51 | OldSet=15 → NewSet=3692 | Way=3
[CEASER][VICTIM] Set=3692 | VictimWay=14 | Replacing Addr=0xf5cd59c55a | LRU=14
[CEASER][MIGRATE] Moving block: Addr=0xf7f4ea43c0 | OldSet=15 → NewSet=3716 | Way=4
[CEASER][VICTIM] Set=3716 | VictimWay=5 | Replacing Addr=0x95eea1b930 | LRU=15
[CEASER][MIGRATE] Moving block: Addr=0xf7f4ea5bf3 | OldSet=15 → NewSet=1425 | Way=5
[CEASER][VICTIM] Set=1425 | VictimWay=4 | Replacing Addr=0x2b4cc07f8b | LRU=15
[CEASER][MIGRATE] Moving block: Addr=0xf7f4ea69e0 | OldSet=15 → NewSet=3782 | Way=6
[CEASER][VICTIM] Set=3782 | VictimWay=10 | Replacing Addr=0x95eea1c820 | LRU=15
[CEASER][MIGRATE] Moving block: Addr=0xf7f4ea5da6 | OldSet=15 → NewSet=2779 | Way=7
[CEASER][VICTIM] Set=2779 | VictimWay=15 | Replacing Addr=0xf5cd59c55a | LRU=15
[CEASER][MIGRATE] Moving block: Addr=0xf7f4ea6fb5 | OldSet=15 → NewSet=396 | Way=8
[CEASER][VICTIM] Set=396 | VictimWay=12 | Replacing Addr=0xa00d7919b6 | LRU=15
[CEASER][MIGRATE] Moving block: Addr=0x95eea1c3be | OldSet=15 → NewSet=3366 | Way=9
[CEASER][VICTIM] Set=3366 | VictimWay=8 | Replacing Addr=0x26542a99f7 | LRU=15
[CEASER][MIGRATE] Moving block: Addr=0x95eea1db8d | OldSet=15 → NewSet=1587 | Way=10
[CEASER][VICTIM] Set=1587 | VictimWay=4 | Replacing Addr=0x60a69baf27 | LRU=15
[CEASER][MIGRATE] Moving block: Addr=0x95eea1e99e | OldSet=15 → NewSet=3428 | Way=11
[CEASER][VICTIM] Set=3428 | VictimWay=14 | Replacing Addr=0x95eea1c008 | LRU=15
[CEASER][MIGRATE] Moving block: Addr=0x95eea1f1ad | OldSet=15 → NewSet=1649 | Way=12
[CEASER][VICTIM] Set=1649 | VictimWay=7 | Replacing Addr=0x512a98db59 | LRU=15
[CEASER][MIGRATE] Moving block: Addr=0x95eea1f7f8 | OldSet=15 → NewSet=2363 | Way=13
[CEASER][VICTIM] Set=2363 | VictimWay=10 | Replacing Addr=0x512a98dae4 | LRU=15
[CEASER][MIGRATE] Moving block: Addr=0x99c4f1029e | OldSet=15 → NewSet=4079 | Way=14
[CEASER][VICTIM] Set=4079 | VictimWay=7 | Replacing Addr=0x86af5ff563 | LRU=15
[CEASER][MIGRATE] Moving block: Addr=0x99c4f11cf8 | OldSet=15 → NewSet=2992 | Way=15
[CEASER][VICTIM] Set=2992 | VictimWay=12 | Replacing Addr=0xa00d7918a4 | LRU=15
[CEASER][REKEY] Rekeying Set 16 → Epoch 1 at cycle 340002
[CEASER][MIGRATE] Moving block: Addr=0xa3a0df2f7c | OldSet=16 → NewSet=1942 | Way=0
[CEASER][VICTIM] Set=1942 | VictimWay=10 | Replacing Addr=0xf5cd59c55a | LRU=10
[CEASER][MIGRATE] Moving block: Addr=0xa3a0df311a | OldSet=16 → NewSet=969 | Way=1
[CEASER][VICTIM] Set=969 | VictimWay=15 | Replacing Addr=0xf7f4ea3ef1 | LRU=15
[CEASER][MIGRATE] Moving block: Addr=0xa3a0df374f | OldSet=16 → NewSet=3203 | Way=2
[CEASER][VICTIM] Set=3203 | VictimWay=2 | Replacing Addr=0xf7f4ea3919 | LRU=15
[CEASER][MIGRATE] Moving block: Addr=0x2b4cc07f0f | OldSet=16 → NewSet=3951 | Way=3
[CEASER][VICTIM] Set=3951 | VictimWay=13 | Replacing Addr=0xf5cd59c55a | LRU=13
[CEASER][MIGRATE] Moving block: Addr=0x26542aa2bf | OldSet=16 → NewSet=1150 | Way=4
[CEASER][VICTIM] Set=1150 | VictimWay=9 | Replacing Addr=0x99c4f11964 | LRU=15
[CEASER][MIGRATE] Moving block: Addr=0x95eea2098c | OldSet=16 → NewSet=3115 | Way=5
[CEASER][VICTIM] Set=3115 | VictimWay=12 | Replacing Addr=0xbfd401ff70 | LRU=15
[CEASER][MIGRATE] Moving block: Addr=0x95eea20fd9 | OldSet=16 → NewSet=865 | Way=6
[CEASER][VICTIM] Set=865 | VictimWay=0 | Replacing Addr=0x95eea1d12f | LRU=15
[CEASER][MIGRATE] Moving block: Addr=0x95eea211bf | OldSet=16 → NewSet=1854 | Way=7
[CEASER][VICTIM] Set=1854 | VictimWay=14 | Replacing Addr=0xf5cd59c55a | LRU=14
[CEASER][MIGRATE] Moving block: Addr=0x95eea217ea | OldSet=16 → NewSet=2164 | Way=8
[CEASER][VICTIM] Set=2164 | VictimWay=15 | Replacing Addr=0xf5cd59c55a | LRU=15
[CEASER][MIGRATE] Moving block: Addr=0x99c4f0f148 | OldSet=16 → NewSet=604 | Way=9
[CEASER][VICTIM] Set=604 | VictimWay=10 | Replacing Addr=0xf7f4ea363a | LRU=15
[CEASER][MIGRATE] Moving block: Addr=0x99c4f0f71d | OldSet=16 → NewSet=3350 | Way=10
[CEASER][VICTIM] Set=3350 | VictimWay=6 | Replacing Addr=0x99c4f10e1d | LRU=15
[CEASER][MIGRATE] Moving block: Addr=0x37b6a18a41 | OldSet=16 → NewSet=766 | Way=11
[CEASER][VICTIM] Set=766 | VictimWay=13 | Replacing Addr=0xf5cd59c55a | LRU=13
[CEASER][MIGRATE] Moving block: Addr=0x37b6a1a061 | OldSet=16 → NewSet=700 | Way=12
[CEASER][VICTIM] Set=700 | VictimWay=15 | Replacing Addr=0xf7f4ea4c34 | LRU=15
[CEASER][MIGRATE] Moving block: Addr=0x37b6a1a634 | OldSet=16 → NewSet=3574 | Way=13
[CEASER][VICTIM] Set=3574 | VictimWay=12 | Replacing Addr=0xf5cd59c55a | LRU=12
[CEASER][REKEY] Rekeying Set 17 → Epoch 1 at cycle 360002
[CEASER][MIGRATE] Moving block: Addr=0x95eea1c089 | OldSet=17 → NewSet=2455 | Way=0
[CEASER][VICTIM] Set=2455 | VictimWay=8 | Replacing Addr=0x99c4f11c6d | LRU=15
[CEASER][MIGRATE] Moving block: Addr=0x95eea1c6dc | OldSet=17 → NewSet=1757 | Way=1
[CEASER][VICTIM] Set=1757 | VictimWay=14 | Replacing Addr=0xf7f4ea3c79 | LRU=15
[CEASER][MIGRATE] Moving block: Addr=0x95eea1d8ba | OldSet=17 → NewSet=642 | Way=2
[CEASER][VICTIM] Set=642 | VictimWay=15 | Replacing Addr=0xf5cd59c55a | LRU=15
[CEASER][MIGRATE] Moving block: Addr=0x95eea1eaa9 | OldSet=17 → NewSet=2517 | Way=3
[CEASER][VICTIM] Set=2517 | VictimWay=13 | Replacing Addr=0x99c4f127aa | LRU=15
[CEASER][MIGRATE] Moving block: Addr=0x95eea1f4cf | OldSet=17 → NewSet=3466 | Way=4
[CEASER][VICTIM] Set=3466 | VictimWay=14 | Replacing Addr=0x37b6a18073 | LRU=15
[CEASER][MIGRATE] Moving block: Addr=0x95eea1f29a | OldSet=17 → NewSet=704 | Way=5
[CEASER][VICTIM] Set=704 | VictimWay=14 | Replacing Addr=0xf5cd59c55a | LRU=14
[CEASER][MIGRATE] Moving block: Addr=0x99c4f107fc | OldSet=17 → NewSet=1044 | Way=6
[CEASER][VICTIM] Set=1044 | VictimWay=2 | Replacing Addr=0xf7f4ea45a4 | LRU=15
[CEASER][MIGRATE] Moving block: Addr=0x99c4f101a9 | OldSet=17 → NewSet=2910 | Way=7
[CEASER][VICTIM] Set=2910 | VictimWay=12 | Replacing Addr=0xf7f4ea4419 | LRU=15
[CEASER][MIGRATE] Moving block: Addr=0x2b4cc09237 | OldSet=17 → NewSet=1020 | Way=8
[CEASER][VICTIM] Set=1020 | VictimWay=13 | Replacing Addr=0xf7f4ea4ab1 | LRU=15
[CEASER][MIGRATE] Moving block: Addr=0x2b4cc0a024 | OldSet=17 → NewSet=2219 | Way=9
[CEASER][VICTIM] Set=2219 | VictimWay=12 | Replacing Addr=0x2b4cc08003 | LRU=15
[CEASER][MIGRATE] Moving block: Addr=0x2b4cc09462 | OldSet=17 → NewSet=3254 | Way=10
[CEASER][VICTIM] Set=3254 | VictimWay=5 | Replacing Addr=0xf7f4ea4d59 | LRU=15
[CEASER][MIGRATE] Moving block: Addr=0x3a8818b10c | OldSet=17 → NewSet=1220 | Way=11
[CEASER][VICTIM] Set=1220 | VictimWay=5 | Replacing Addr=0xf7f4ea47dd | LRU=15
[CEASER][MIGRATE] Moving block: Addr=0x2b4cc0a671 | OldSet=17 → NewSet=2017 | Way=12
[CEASER][VICTIM] Set=2017 | VictimWay=14 | Replacing Addr=0xf5cd59c55a | LRU=14
[CEASER][MIGRATE] Moving block: Addr=0x3a8818b759 | OldSet=17 → NewSet=2958 | Way=13
[CEASER][VICTIM] Set=2958 | VictimWay=6 | Replacing Addr=0xf7f4ea6a15 | LRU=15
[CEASER][MIGRATE] Moving block: Addr=0x512a98dc7a | OldSet=17 → NewSet=886 | Way=14
[CEASER][VICTIM] Set=886 | VictimWay=14 | Replacing Addr=0xf5cd59c55a | LRU=14
[CEASER][MIGRATE] Moving block: Addr=0x95eea1b84d | OldSet=17 → NewSet=1589 | Way=15
[CEASER][VICTIM] Set=1589 | VictimWay=12 | Replacing Addr=0xf5cd59c55a | LRU=12
[CEASER][REKEY] Rekeying Set 18 → Epoch 1 at cycle 380003
[CEASER][MIGRATE] Moving block: Addr=0x37b6a17ad5 | OldSet=18 → NewSet=2247 | Way=0
[CEASER][VICTIM] Set=2247 | VictimWay=3 | Replacing Addr=0xf7f4ea4e90 | LRU=15
[CEASER][MIGRATE] Moving block: Addr=0xf7f4ea6f48 | OldSet=18 → NewSet=1992 | Way=1
[CEASER][VICTIM] Set=1992 | VictimWay=13 | Replacing Addr=0xf7f4ea632d | LRU=15
[CEASER][MIGRATE] Moving block: Addr=0x2b4cc091fd | OldSet=18 → NewSet=265 | Way=2
[CEASER][VICTIM] Set=265 | VictimWay=2 | Replacing Addr=0xa3a0df371e | LRU=15
[CEASER][MIGRATE] Moving block: Addr=0x2b4cc08f9b | OldSet=18 → NewSet=1366 | Way=3
[CEASER][VICTIM] Set=1366 | VictimWay=14 | Replacing Addr=0x3a8818b119 | LRU=15
[CEASER][MIGRATE] Moving block: Addr=0x2b4cc0a3ee | OldSet=18 → NewSet=2654 | Way=4
[CEASER][VICTIM] Set=2654 | VictimWay=3 | Replacing Addr=0xf7f4ea304f | LRU=15
[CEASER][MIGRATE] Moving block: Addr=0x2b4cc0a5bb | OldSet=18 → NewSet=1300 | Way=5
[CEASER][VICTIM] Set=1300 | VictimWay=3 | Replacing Addr=0xf7f4ea4f63 | LRU=15
[CEASER][MIGRATE] Moving block: Addr=0x2b4cc097a8 | OldSet=18 → NewSet=3651 | Way=6
[CEASER][VICTIM] Set=3651 | VictimWay=12 | Replacing Addr=0xf5cd59c55a | LRU=12
[CEASER][MIGRATE] Moving block: Addr=0x3a8818b493 | OldSet=18 → NewSet=2427 | Way=7
[CEASER][VICTIM] Set=2427 | VictimWay=15 | Replacing Addr=0x86af5ff7f4 | LRU=15
[CEASER][MIGRATE] Moving block: Addr=0x3a8818b2c6 | OldSet=18 → NewSet=1585 | Way=8
[CEASER][VICTIM] Set=1585 | VictimWay=13 | Replacing Addr=0xf5cd59c55a | LRU=13
[CEASER][MIGRATE] Moving block: Addr=0x95eea1c343 | OldSet=18 → NewSet=2914 | Way=9
[CEASER][VICTIM] Set=2914 | VictimWay=14 | Replacing Addr=0xf5cd59c55a | LRU=14
[CEASER][MIGRATE] Moving block: Addr=0x95eea1c516 | OldSet=18 → NewSet=1064 | Way=10
[CEASER][VICTIM] Set=1064 | VictimWay=0 | Replacing Addr=0x5e798a93a1 | LRU=15
[CEASER][MIGRATE] Moving block: Addr=0x95eea1ef36 | OldSet=18 → NewSet=1130 | Way=11
[CEASER][VICTIM] Set=1130 | VictimWay=14 | Replacing Addr=0xf5cd59c55a | LRU=14
[CEASER][MIGRATE] Moving block: Addr=0x95eea1f705 | OldSet=18 → NewSet=3967 | Way=12
[CEASER][VICTIM] Set=3967 | VictimWay=9 | Replacing Addr=0xf7f4ea3e43 | LRU=15
[CEASER][MIGRATE] Moving block: Addr=0x95eea1e963 | OldSet=18 → NewSet=2848 | Way=13
[CEASER][VICTIM] Set=2848 | VictimWay=11 | Replacing Addr=0xf5cd59c55a | LRU=11
[CEASER][MIGRATE] Moving block: Addr=0x99c4f10436 | OldSet=18 → NewSet=1761 | Way=14
[CEASER][VICTIM] Set=1761 | VictimWay=15 | Replacing Addr=0xf5cd59c55a | LRU=15
[CEASER][MIGRATE] Moving block: Addr=0x99c4f11a50 | OldSet=18 → NewSet=702 | Way=15
[CEASER][VICTIM] Set=702 | VictimWay=13 | Replacing Addr=0xf7f4ea5191 | LRU=15
[CEASER][REKEY] Rekeying Set 19 → Epoch 1 at cycle 400003
[CEASER][MIGRATE] Moving block: Addr=0xa3a0df3485 | OldSet=19 → NewSet=3702 | Way=0
[CEASER][VICTIM] Set=3702 | VictimWay=12 | Replacing Addr=0xf5cd59c55a | LRU=12
[CEASER][MIGRATE] Moving block: Addr=0x26542a9533 | OldSet=19 → NewSet=662 | Way=1
[CEASER][VICTIM] Set=662 | VictimWay=2 | Replacing Addr=0x3a8818b275 | LRU=15
[CEASER][MIGRATE] Moving block: Addr=0x26542aa175 | OldSet=19 → NewSet=1675 | Way=2
[CEASER][VICTIM] Set=1675 | VictimWay=3 | Replacing Addr=0x86af5ff7c8 | LRU=15
[CEASER][MIGRATE] Moving block: Addr=0x95eea20c13 | OldSet=19 → NewSet=404 | Way=3
[CEASER][VICTIM] Set=404 | VictimWay=12 | Replacing Addr=0xf5cd59c55a | LRU=12
[CEASER][MIGRATE] Moving block: Addr=0x95eea20a46 | OldSet=19 → NewSet=3806 | Way=4
[CEASER][VICTIM] Set=3806 | VictimWay=15 | Replacing Addr=0xf5cd59c55a | LRU=15
[CEASER][MIGRATE] Moving block: Addr=0x95eea21275 | OldSet=19 → NewSet=1483 | Way=5
[CEASER][VICTIM] Set=1483 | VictimWay=14 | Replacing Addr=0x95eea1f709 | LRU=15
[CEASER][MIGRATE] Moving block: Addr=0x95eea21420 | OldSet=19 → NewSet=2689 | Way=6
[CEASER][VICTIM] Set=2689 | VictimWay=8 | Replacing Addr=0x99c4f11be1 | LRU=15
[CEASER][MIGRATE] Moving block: Addr=0x95eea22066 | OldSet=19 → NewSet=3740 | Way=7
[CEASER][VICTIM] Set=3740 | VictimWay=2 | Replacing Addr=0x86af5ff6ca | LRU=15
[CEASER][MIGRATE] Moving block: Addr=0x95eea22633 | OldSet=19 → NewSet=470 | Way=8
[CEASER][VICTIM] Set=470 | VictimWay=2 | Replacing Addr=0x26542a9caf | LRU=15
[CEASER][MIGRATE] Moving block: Addr=0x95eea23855 | OldSet=19 → NewSet=1417 | Way=9
[CEASER][VICTIM] Set=1417 | VictimWay=13 | Replacing Addr=0x95eea1ca9b | LRU=15
[CEASER][MIGRATE] Moving block: Addr=0x99c4f0f282 | OldSet=19 → NewSet=169 | Way=10
[CEASER][VICTIM] Set=169 | VictimWay=3 | Replacing Addr=0x26542a94b2 | LRU=15
[CEASER][MIGRATE] Moving block: Addr=0x99c4f0f4d7 | OldSet=19 → NewSet=4067 | Way=11
[CEASER][VICTIM] Set=4067 | VictimWay=14 | Replacing Addr=0xf5cd59c55a | LRU=14
[CEASER][MIGRATE] Moving block: Addr=0x37b6a18fde | OldSet=19 → NewSet=3905 | Way=12
[CEASER][VICTIM] Set=3905 | VictimWay=13 | Replacing Addr=0x95eea1d05b | LRU=15
[CEASER][MIGRATE] Moving block: Addr=0x37b6a197ed | OldSet=19 → NewSet=1108 | Way=13
[CEASER][VICTIM] Set=1108 | VictimWay=8 | Replacing Addr=0x26542a99b4 | LRU=15
[CEASER][MIGRATE] Moving block: Addr=0x37b6a1a5fe | OldSet=19 → NewSet=3843 | Way=14
[CEASER][VICTIM] Set=3843 | VictimWay=11 | Replacing Addr=0x99c4f1009c | LRU=15
[CEASER][REKEY] Rekeying Set 20 → Epoch 1 at cycle 420003
[CEASER][MIGRATE] Moving block: Addr=0xa3a0df2517 | OldSet=20 → NewSet=1553 | Way=0
[CEASER][VICTIM] Set=1553 | VictimWay=12 | Replacing Addr=0x95eea20f42 | LRU=15
[CEASER][MIGRATE] Moving block: Addr=0x2b4cc07331 | OldSet=20 → NewSet=418 | Way=1
[CEASER][VICTIM] Set=418 | VictimWay=5 | Replacing Addr=0x95eea20315 | LRU=15
[CEASER][MIGRATE] Moving block: Addr=0x86af5ff74a | OldSet=20 → NewSet=3700 | Way=2
[CEASER][VICTIM] Set=3700 | VictimWay=4 | Replacing Addr=0x99c4f1237e | LRU=15
[CEASER][MIGRATE] Moving block: Addr=0x26542a9ac7 | OldSet=20 → NewSet=3758 | Way=3
[CEASER][VICTIM] Set=3758 | VictimWay=14 | Replacing Addr=0xf5cd59c55a | LRU=14
[CEASER][MIGRATE] Moving block: Addr=0x95eea203e7 | OldSet=20 → NewSet=3500 | Way=4
[CEASER][VICTIM] Set=3500 | VictimWay=3 | Replacing Addr=0x2884c86257 | LRU=15
[CEASER][MIGRATE] Moving block: Addr=0x95eea205b2 | OldSet=20 → NewSet=742 | Way=5
[CEASER][VICTIM] Set=742 | VictimWay=13 | Replacing Addr=0x99c4f12401 | LRU=15
[CEASER][MIGRATE] Moving block: Addr=0x95eea21bd4 | OldSet=20 → NewSet=1721 | Way=6
[CEASER][VICTIM] Set=1721 | VictimWay=15 | Replacing Addr=0x95eea23206 | LRU=15
[CEASER][MIGRATE] Moving block: Addr=0x95eea21d81 | OldSet=20 → NewSet=2547 | Way=7
[CEASER][VICTIM] Set=2547 | VictimWay=11 | Replacing Addr=0x95eea2199b | LRU=15
[CEASER][MIGRATE] Moving block: Addr=0x95eea229c7 | OldSet=20 → NewSet=3566 | Way=8
[CEASER][VICTIM] Set=3566 | VictimWay=2 | Replacing Addr=0xf7f4ea4143 | LRU=15
[CEASER][MIGRATE] Moving block: Addr=0x95eea22f92 | OldSet=20 → NewSet=676 | Way=9
[CEASER][VICTIM] Set=676 | VictimWay=12 | Replacing Addr=0x37b6a17f43 | LRU=15
[CEASER][MIGRATE] Moving block: Addr=0x95eea231f4 | OldSet=20 → NewSet=1787 | Way=10
[CEASER][VICTIM] Set=1787 | VictimWay=12 | Replacing Addr=0xf5cd59c55a | LRU=12
[CEASER][MIGRATE] Moving block: Addr=0x95eea237a1 | OldSet=20 → NewSet=2481 | Way=11
[CEASER][VICTIM] Set=2481 | VictimWay=12 | Replacing Addr=0xf5cd59c55a | LRU=12
[CEASER][MIGRATE] Moving block: Addr=0x99c4f0fb23 | OldSet=20 → NewSet=987 | Way=12
[CEASER][VICTIM] Set=987 | VictimWay=1 | Replacing Addr=0x8d77fe6cbe | LRU=15
[CEASER][MIGRATE] Moving block: Addr=0x99c4f0fd76 | OldSet=20 → NewSet=3217 | Way=13
[CEASER][VICTIM] Set=3217 | VictimWay=7 | Replacing Addr=0xbfd401e097 | LRU=15
[CEASER][MIGRATE] Moving block: Addr=0x37b6a1aa0a | OldSet=20 → NewSet=827 | Way=14
[CEASER][VICTIM] Set=827 | VictimWay=6 | Replacing Addr=0x95eea2050e | LRU=15
[CEASER][MIGRATE] Moving block: Addr=0x37b6a1ac5f | OldSet=20 → NewSet=3185 | Way=15
[CEASER][VICTIM] Set=3185 | VictimWay=6 | Replacing Addr=0x95eea202e6 | LRU=15
[CEASER][REKEY] Rekeying Set 21 → Epoch 1 at cycle 440003
[CEASER][MIGRATE] Moving block: Addr=0xf7f4ea66e9 | OldSet=21 → NewSet=1210 | Way=0
[CEASER][VICTIM] Set=1210 | VictimWay=14 | Replacing Addr=0xf5cd59c55a | LRU=14
[CEASER][MIGRATE] Moving block: Addr=0x2b4cc0806f | OldSet=21 → NewSet=2414 | Way=1
[CEASER][VICTIM] Set=2414 | VictimWay=15 | Replacing Addr=0x99c4f12f34 | LRU=15
[CEASER][MIGRATE] Moving block: Addr=0x2b4cc0985c | OldSet=21 → NewSet=635 | Way=2
[CEASER][VICTIM] Set=635 | VictimWay=4 | Replacing Addr=0x99c4f115c1 | LRU=15
[CEASER][MIGRATE] Moving block: Addr=0x2b4cc0ac1a | OldSet=21 → NewSet=1638 | Way=3
[CEASER][VICTIM] Set=1638 | VictimWay=12 | Replacing Addr=0x37b6a191ec | LRU=15
[CEASER][MIGRATE] Moving block: Addr=0x2b4cc09e09 | OldSet=21 → NewSet=3377 | Way=4
[CEASER][VICTIM] Set=3377 | VictimWay=11 | Replacing Addr=0xa00d791b11 | LRU=15
[CEASER][MIGRATE] Moving block: Addr=0xa00d791ac9 | OldSet=21 → NewSet=1438 | Way=5
[CEASER][VICTIM] Set=1438 | VictimWay=13 | Replacing Addr=0xf5cd59c55a | LRU=13
[CEASER][MIGRATE] Moving block: Addr=0xa00d791c9c | OldSet=21 → NewSet=2772 | Way=6
[CEASER][VICTIM] Set=2772 | VictimWay=3 | Replacing Addr=0x37b6a1af73 | LRU=15
[CEASER][MIGRATE] Moving block: Addr=0x95eea1ccb7 | OldSet=21 → NewSet=1882 | Way=7
[CEASER][VICTIM] Set=1882 | VictimWay=9 | Replacing Addr=0xf7f4ea6880 | LRU=15
[CEASER][MIGRATE] Moving block: Addr=0x95eea1cae2 | OldSet=21 → NewSet=2064 | Way=8
[CEASER][VICTIM] Set=2064 | VictimWay=11 | Replacing Addr=0x2b4cc0a3ce | LRU=15
[CEASER][MIGRATE] Moving block: Addr=0x8d77fe70a7 | OldSet=21 → NewSet=1373 | Way=9
[CEASER][VICTIM] Set=1373 | VictimWay=1 | Replacing Addr=0x2b4cc09037 | LRU=15
[CEASER][MIGRATE] Moving block: Addr=0x95eea1d2d1 | OldSet=21 → NewSet=773 | Way=10
[CEASER][VICTIM] Set=773 | VictimWay=13 | Replacing Addr=0xf5cd59c55a | LRU=13
[CEASER][MIGRATE] Moving block: Addr=0x95eea1f8f1 | OldSet=21 → NewSet=839 | Way=11
[CEASER][VICTIM] Set=839 | VictimWay=13 | Replacing Addr=0x37b6a187d3 | LRU=15
[CEASER][MIGRATE] Moving block: Addr=0x8d77fe76f2 | OldSet=21 → NewSet=2583 | Way=12
[CEASER][VICTIM] Set=2583 | VictimWay=3 | Replacing Addr=0xf7f4ea3ddb | LRU=15
[CEASER][MIGRATE] Moving block: Addr=0x99c4f10bc2 | OldSet=21 → NewSet=2777 | Way=13
[CEASER][VICTIM] Set=2777 | VictimWay=9 | Replacing Addr=0xf7f4ea7017 | LRU=15
[CEASER][MIGRATE] Moving block: Addr=0x99c4f115a4 | OldSet=21 → NewSet=3718 | Way=14
[CEASER][VICTIM] Set=3718 | VictimWay=2 | Replacing Addr=0x26542aa008 | LRU=15
[CEASER][MIGRATE] Moving block: Addr=0xf7f4ea4a9c | OldSet=21 → NewSet=2994 | Way=15
[CEASER][VICTIM] Set=2994 | VictimWay=0 | Replacing Addr=0xa3a0df3c83 | LRU=15
[CEASER][REKEY] Rekeying Set 22 → Epoch 1 at cycle 460003
[CEASER][MIGRATE] Moving block: Addr=0x2b4cc083a5 | OldSet=22 → NewSet=2971 | Way=0
[CEASER][VICTIM] Set=2971 | VictimWay=4 | Replacing Addr=0x2b4cc0a1c4 | LRU=15
[CEASER][MIGRATE] Moving block: Addr=0x2b4cc085f0 | OldSet=22 → NewSet=1233 | Way=1
[CEASER][VICTIM] Set=1233 | VictimWay=10 | Replacing Addr=0xa00d7916aa | LRU=15
[CEASER][MIGRATE] Moving block: Addr=0x2b4cc09b96 | OldSet=22 → NewSet=142 | Way=2
[CEASER][VICTIM] Set=142 | VictimWay=12 | Replacing Addr=0xf5cd59c55a | LRU=12
[CEASER][MIGRATE] Moving block: Addr=0x60a69bb042 | OldSet=22 → NewSet=2451 | Way=3
[CEASER][VICTIM] Set=2451 | VictimWay=7 | Replacing Addr=0x2b4cc09dab | LRU=15
[CEASER][MIGRATE] Moving block: Addr=0xa00d791903 | OldSet=22 → NewSet=1899 | Way=4
[CEASER][VICTIM] Set=1899 | VictimWay=8 | Replacing Addr=0x2b4cc0968f | LRU=15
[CEASER][MIGRATE] Moving block: Addr=0x95eea1cf7d | OldSet=22 → NewSet=1455 | Way=5
[CEASER][VICTIM] Set=1455 | VictimWay=7 | Replacing Addr=0x2b4cc0774f | LRU=15
[CEASER][MIGRATE] Moving block: Addr=0x95eea1e55d | OldSet=22 → NewSet=1517 | Way=6
[CEASER][VICTIM] Set=1517 | VictimWay=15 | Replacing Addr=0xf5cd59c55a | LRU=15
[CEASER][MIGRATE] Moving block: Addr=0x95eea1fb3b | OldSet=22 → NewSet=434 | Way=7
[CEASER][VICTIM] Set=434 | VictimWay=6 | Replacing Addr=0xf7f4ea6b07 | LRU=15
[CEASER][MIGRATE] Moving block: Addr=0x8d77fe736d | OldSet=22 → NewSet=1960 | Way=8
[CEASER][VICTIM] Set=1960 | VictimWay=1 | Replacing Addr=0xa3a0df3f58 | LRU=15
[CEASER][MIGRATE] Moving block: Addr=0x8d77fe7538 | OldSet=22 → NewSet=2274 | Way=9
[CEASER][VICTIM] Set=2274 | VictimWay=2 | Replacing Addr=0xa3a0df4074 | LRU=15
[CEASER][MIGRATE] Moving block: Addr=0x99c4f1166e | OldSet=22 → NewSet=3187 | Way=10
[CEASER][VICTIM] Set=3187 | VictimWay=10 | Replacing Addr=0xa00d791802 | LRU=15
[CEASER][MIGRATE] Moving block: Addr=0x37b6a176eb | OldSet=22 → NewSet=1546 | Way=11
[CEASER][VICTIM] Set=1546 | VictimWay=6 | Replacing Addr=0x60a69bae42 | LRU=15
[CEASER][MIGRATE] Moving block: Addr=0xf7f4ea4f03 | OldSet=22 → NewSet=1549 | Way=12
[CEASER][VICTIM] Set=1549 | VictimWay=8 | Replacing Addr=0x2b4cc0a042 | LRU=15
[CEASER][MIGRATE] Moving block: Addr=0xf7f4ea5165 | OldSet=22 → NewSet=594 | Way=13
[CEASER][VICTIM] Set=594 | VictimWay=13 | Replacing Addr=0xf5cd59c55a | LRU=13
[CEASER][MIGRATE] Moving block: Addr=0xf7f4ea6376 | OldSet=22 → NewSet=2309 | Way=14
[CEASER][VICTIM] Set=2309 | VictimWay=2 | Replacing Addr=0xf7f4ea48f8 | LRU=15
[CEASER][MIGRATE] Moving block: Addr=0xf7f4ea6523 | OldSet=22 → NewSet=1615 | Way=15
[CEASER][VICTIM] Set=1615 | VictimWay=0 | Replacing Addr=0x2b4cc09b85 | LRU=15
[CEASER][REKEY] Rekeying Set 23 → Epoch 1 at cycle 480003
[CEASER][MIGRATE] Moving block: Addr=0xa3a0df3eee | OldSet=23 → NewSet=4081 | Way=0
[CEASER][VICTIM] Set=4081 | VictimWay=6 | Replacing Addr=0x95eea204ac | LRU=15
[CEASER][MIGRATE] Moving block: Addr=0x2b4cc076ae | OldSet=23 → NewSet=3101 | Way=1
[CEASER][VICTIM] Set=3101 | VictimWay=3 | Replacing Addr=0x95eea1c1ba | LRU=15
[CEASER][MIGRATE] Moving block: Addr=0x86af5ff480 | OldSet=23 → NewSet=3201 | Way=2
[CEASER][VICTIM] Set=3201 | VictimWay=15 | Replacing Addr=0xf5cd59c55a | LRU=15
[CEASER][MIGRATE] Moving block: Addr=0xb1bc7930a9 | OldSet=23 → NewSet=1173 | Way=3
[CEASER][VICTIM] Set=1173 | VictimWay=13 | Replacing Addr=0xf5cd59c55a | LRU=13
[CEASER][MIGRATE] Moving block: Addr=0x26542a990d | OldSet=23 → NewSet=3163 | Way=4
[CEASER][VICTIM] Set=3163 | VictimWay=3 | Replacing Addr=0x95eea1c450 | LRU=15
[CEASER][MIGRATE] Moving block: Addr=0x95eea2002d | OldSet=23 → NewSet=3929 | Way=5
[CEASER][VICTIM] Set=3929 | VictimWay=10 | Replacing Addr=0x95eea20dae | LRU=15
[CEASER][MIGRATE] Moving block: Addr=0x95eea2181e | OldSet=23 → NewSet=1100 | Way=6
[CEASER][VICTIM] Set=1100 | VictimWay=4 | Replacing Addr=0x99c4f10227 | LRU=15
[CEASER][MIGRATE] Moving block: Addr=0x95eea22c58 | OldSet=23 → NewSet=81 | Way=7
[CEASER][VICTIM] Set=81 | VictimWay=3 | Replacing Addr=0x95eea20392 | LRU=15
[CEASER][MIGRATE] Moving block: Addr=0x95eea2323e | OldSet=23 → NewSet=1038 | Way=8
[CEASER][VICTIM] Set=1038 | VictimWay=0 | Replacing Addr=0x95eea1fe95 | LRU=15
[CEASER][MIGRATE] Moving block: Addr=0x95eea2346b | OldSet=23 → NewSet=2884 | Way=9
[CEASER][VICTIM] Set=2884 | VictimWay=3 | Replacing Addr=0x95eea1d508 | LRU=15
[CEASER][MIGRATE] Moving block: Addr=0x99c4f0f8e9 | OldSet=23 → NewSet=302 | Way=10
[CEASER][VICTIM] Set=302 | VictimWay=15 | Replacing Addr=0xf5cd59c55a | LRU=15
[CEASER][MIGRATE] Moving block: Addr=0x37b6a19d86 | OldSet=23 → NewSet=1491 | Way=11
[CEASER][VICTIM] Set=1491 | VictimWay=7 | Replacing Addr=0x95eea21eba | LRU=15
[CEASER][MIGRATE] Moving block: Addr=0x8d77fe8013 | OldSet=23 → NewSet=3507 | Way=12
[CEASER][VICTIM] Set=3507 | VictimWay=13 | Replacing Addr=0x95eea2048e | LRU=15
[CEASER][MIGRATE] Moving block: Addr=0x8d77fe8666 | OldSet=23 → NewSet=46 | Way=13
[CEASER][VICTIM] Set=46 | VictimWay=13 | Replacing Addr=0x95eea22b68 | LRU=15
[CEASER][MIGRATE] Moving block: Addr=0x8d77fe8013 | OldSet=23 → NewSet=3507 | Way=14
[CEASER][VICTIM] Set=3507 | VictimWay=14 | Replacing Addr=0x95eea21ae8 | LRU=15
[CEASER][REKEY] Rekeying Set 24 → Epoch 1 at cycle 500003
[CEASER][MIGRATE] Moving block: Addr=0xa3a0df2ea3 | OldSet=24 → NewSet=3615 | Way=0
[CEASER][VICTIM] Set=3615 | VictimWay=5 | Replacing Addr=0x95eea22ef6 | LRU=15
[CEASER][MIGRATE] Moving block: Addr=0xa3a0df30c5 | OldSet=24 → NewSet=2624 | Way=1
[CEASER][VICTIM] Set=2624 | VictimWay=14 | Replacing Addr=0x37b6a17401 | LRU=15
[CEASER][MIGRATE] Moving block: Addr=0x2b4cc07885 | OldSet=24 → NewSet=2476 | Way=2
[CEASER][VICTIM] Set=2476 | VictimWay=11 | Replacing Addr=0xf5cd59c55a | LRU=11
[CEASER][MIGRATE] Moving block: Addr=0x2b4cc07ed0 | OldSet=24 → NewSet=1766 | Way=3
[CEASER][VICTIM] Set=1766 | VictimWay=14 | Replacing Addr=0xf5cd59c55a | LRU=14
[CEASER][MIGRATE] Moving block: Addr=0x26542a9726 | OldSet=24 → NewSet=2538 | Way=4
[CEASER][VICTIM] Set=2538 | VictimWay=12 | Replacing Addr=0xf5cd59c55a | LRU=12
[CEASER][MIGRATE] Moving block: Addr=0x26542aa360 | OldSet=24 → NewSet=3575 | Way=5
[CEASER][VICTIM] Set=3575 | VictimWay=14 | Replacing Addr=0xbfd401e21c | LRU=15
[CEASER][MIGRATE] Moving block: Addr=0x95eea20e06 | OldSet=24 → NewSet=2792 | Way=6
[CEASER][VICTIM] Set=2792 | VictimWay=8 | Replacing Addr=0xf7f4ea3a7a | LRU=15
[CEASER][MIGRATE] Moving block: Addr=0x95eea21060 | OldSet=24 → NewSet=3767 | Way=7
[CEASER][VICTIM] Set=3767 | VictimWay=14 | Replacing Addr=0xf5cd59c55a | LRU=14
[CEASER][MIGRATE] Moving block: Addr=0x95eea22273 | OldSet=24 → NewSet=1504 | Way=8
[CEASER][VICTIM] Set=1504 | VictimWay=0 | Replacing Addr=0x37b6a1733f | LRU=15
[CEASER][MIGRATE] Moving block: Addr=0x99c4f0f097 | OldSet=24 → NewSet=3029 | Way=9
[CEASER][VICTIM] Set=3029 | VictimWay=11 | Replacing Addr=0x37b6a17cca | LRU=15
[CEASER][MIGRATE] Moving block: Addr=0x99c4f0f6c2 | OldSet=24 → NewSet=1183 | Way=10
[CEASER][VICTIM] Set=1183 | VictimWay=1 | Replacing Addr=0xf7f4ea449f | LRU=15
[CEASER][MIGRATE] Moving block: Addr=0x37b6a18b9e | OldSet=24 → NewSet=2935 | Way=11
[CEASER][VICTIM] Set=2935 | VictimWay=14 | Replacing Addr=0x99c4f0ff8a | LRU=15
[CEASER][MIGRATE] Moving block: Addr=0x37b6a193ad | OldSet=24 → NewSet=98 | Way=12
[CEASER][VICTIM] Set=98 | VictimWay=10 | Replacing Addr=0xf7f4ea3708 | LRU=15
[CEASER][MIGRATE] Moving block: Addr=0x37b6a1a1be | OldSet=24 → NewSet=2869 | Way=13
[CEASER][VICTIM] Set=2869 | VictimWay=6 | Replacing Addr=0x95eea208cf | LRU=15
[CEASER][MIGRATE] Moving block: Addr=0x8d77fe884d | OldSet=24 → NewSet=1439 | Way=14
[CEASER][VICTIM] Set=1439 | VictimWay=9 | Replacing Addr=0xf7f4ea369c | LRU=15
[CEASER][REKEY] Rekeying Set 25 → Epoch 1 at cycle 520003
[CEASER][MIGRATE] Moving block: Addr=0x2b4cc093e8 | OldSet=25 → NewSet=2677 | Way=0
[CEASER][VICTIM] Set=2677 | VictimWay=0 | Replacing Addr=0xf7f4ea6b4d | LRU=15
[CEASER][MIGRATE] Moving block: Addr=0x2b4cc0a1fb | OldSet=25 → NewSet=290 | Way=1
[CEASER][VICTIM] Set=290 | VictimWay=11 | Replacing Addr=0x37b6a19bc5 | LRU=15
[CEASER][MIGRATE] Moving block: Addr=0x2b4cc095bd | OldSet=25 → NewSet=1343 | Way=2
[CEASER][VICTIM] Set=1343 | VictimWay=7 | Replacing Addr=0xf7f4ea6ca5 | LRU=15
[CEASER][MIGRATE] Moving block: Addr=0x3a8818b686 | OldSet=25 → NewSet=519 | Way=3
[CEASER][VICTIM] Set=519 | VictimWay=4 | Replacing Addr=0xf7f4ea61c9 | LRU=15
[CEASER][MIGRATE] Moving block: Addr=0x3a8818b0d3 | OldSet=25 → NewSet=3405 | Way=4
[CEASER][VICTIM] Set=3405 | VictimWay=7 | Replacing Addr=0x99c4f1156c | LRU=15
[CEASER][MIGRATE] Moving block: Addr=0xa00d791728 | OldSet=25 → NewSet=730 | Way=5
[CEASER][VICTIM] Set=730 | VictimWay=12 | Replacing Addr=0x37b6a1a2b2 | LRU=15
[CEASER][MIGRATE] Moving block: Addr=0x95eea1c156 | OldSet=25 → NewSet=30 | Way=6
[CEASER][VICTIM] Set=30 | VictimWay=8 | Replacing Addr=0xf7f4ea4edc | LRU=15
[CEASER][MIGRATE] Moving block: Addr=0x512a98dbf0 | OldSet=25 → NewSet=1461 | Way=7
[CEASER][VICTIM] Set=1461 | VictimWay=10 | Replacing Addr=0x37b6a18b5d | LRU=15
[CEASER][MIGRATE] Moving block: Addr=0x512a98dda5 | OldSet=25 → NewSet=2815 | Way=8
[CEASER][VICTIM] Set=2815 | VictimWay=11 | Replacing Addr=0x37b6a19486 | LRU=15
[CEASER][MIGRATE] Moving block: Addr=0x95eea1bfc7 | OldSet=25 → NewSet=246 | Way=9
[CEASER][VICTIM] Set=246 | VictimWay=13 | Replacing Addr=0xf5cd59c55a | LRU=13
[CEASER][MIGRATE] Moving block: Addr=0x95eea1d965 | OldSet=25 → NewSet=2827 | Way=10
[CEASER][VICTIM] Set=2827 | VictimWay=14 | Replacing Addr=0x8d77fe8015 | LRU=15
[CEASER][MIGRATE] Moving block: Addr=0x95eea1ed23 | OldSet=25 → NewSet=3862 | Way=11
[CEASER][VICTIM] Set=3862 | VictimWay=9 | Replacing Addr=0xf7f4ea58d3 | LRU=15
[CEASER][MIGRATE] Moving block: Addr=0x95eea1f510 | OldSet=25 → NewSet=1027 | Way=12
[CEASER][VICTIM] Set=1027 | VictimWay=10 | Replacing Addr=0x37b6a18baf | LRU=15
[CEASER][MIGRATE] Moving block: Addr=0x95eea23004 | OldSet=25 → NewSet=3801 | Way=13
[CEASER][VICTIM] Set=3801 | VictimWay=12 | Replacing Addr=0xf5cd59c55a | LRU=12
[CEASER][MIGRATE] Moving block: Addr=0x99c4f10076 | OldSet=25 → NewSet=727 | Way=14
[CEASER][VICTIM] Set=727 | VictimWay=15 | Replacing Addr=0xf7f4ea51a3 | LRU=15
[CEASER][MIGRATE] Moving block: Addr=0x99c4f10623 | OldSet=25 → NewSet=3485 | Way=15
[CEASER][VICTIM] Set=3485 | VictimWay=5 | Replacing Addr=0x99c4f10f26 | LRU=15
[CEASER][REKEY] Rekeying Set 26 → Epoch 1 at cycle 540003
[CEASER][MIGRATE] Moving block: Addr=0x2b4cc0a231 | OldSet=26 → NewSet=983 | Way=0
[CEASER][VICTIM] Set=983 | VictimWay=7 | Replacing Addr=0x2b4cc09197 | LRU=15
[CEASER][MIGRATE] Moving block: Addr=0x9f422b4071 | OldSet=26 → NewSet=4011 | Way=1
[CEASER][VICTIM] Set=4011 | VictimWay=4 | Replacing Addr=0xbfd401e109 | LRU=15
[CEASER][MIGRATE] Moving block: Addr=0x4b9cf2c25 | OldSet=26 → NewSet=2168 | Way=2
[CEASER][VICTIM] Set=2168 | VictimWay=14 | Replacing Addr=0xf5cd59c55a | LRU=14
[CEASER][MIGRATE] Moving block: Addr=0x95eea1ba58 | OldSet=26 → NewSet=3401 | Way=3
[CEASER][VICTIM] Set=3401 | VictimWay=14 | Replacing Addr=0x2b4cc0a6b9 | LRU=15
[CEASER][MIGRATE] Moving block: Addr=0x95eea1c29c | OldSet=26 → NewSet=747 | Way=4
[CEASER][VICTIM] Set=747 | VictimWay=15 | Replacing Addr=0x95eea1c006 | LRU=15
[CEASER][MIGRATE] Moving block: Addr=0x512a98de6f | OldSet=26 → NewSet=2058 | Way=5
[CEASER][VICTIM] Set=2058 | VictimWay=5 | Replacing Addr=0xf7f4ea3285 | LRU=15
[CEASER][MIGRATE] Moving block: Addr=0x95eea1bc0d | OldSet=26 → NewSet=515 | Way=6
[CEASER][VICTIM] Set=515 | VictimWay=3 | Replacing Addr=0x2b4cc08b71 | LRU=15
[CEASER][MIGRATE] Moving block: Addr=0x95eea1c4c9 | OldSet=26 → NewSet=3489 | Way=7
[CEASER][VICTIM] Set=3489 | VictimWay=8 | Replacing Addr=0x26542a952d | LRU=15
[CEASER][MIGRATE] Moving block: Addr=0x95eea1eee9 | OldSet=26 → NewSet=3555 | Way=8
[CEASER][VICTIM] Set=3555 | VictimWay=0 | Replacing Addr=0xa3a0df3b1a | LRU=15
[CEASER][MIGRATE] Moving block: Addr=0x95eea1f6da | OldSet=26 → NewSet=1782 | Way=9
[CEASER][VICTIM] Set=1782 | VictimWay=13 | Replacing Addr=0x2b4cc081fd | LRU=15
[CEASER][MIGRATE] Moving block: Addr=0x99c4f103bc | OldSet=26 → NewSet=34 | Way=10
[CEASER][VICTIM] Set=34 | VictimWay=1 | Replacing Addr=0xa3a0df343f | LRU=15
[CEASER][MIGRATE] Moving block: Addr=0x99c4f11dda | OldSet=26 → NewSet=1149 | Way=11
[CEASER][VICTIM] Set=1149 | VictimWay=1 | Replacing Addr=0xf7f4ea6fb6 | LRU=15
[CEASER][MIGRATE] Moving block: Addr=0x99c4f12fc9 | OldSet=26 → NewSet=3882 | Way=12
[CEASER][VICTIM] Set=3882 | VictimWay=4 | Replacing Addr=0x2b4cc07416 | LRU=15
[CEASER][MIGRATE] Moving block: Addr=0x37b6a17d5f | OldSet=26 → NewSet=3588 | Way=13
[CEASER][VICTIM] Set=3588 | VictimWay=7 | Replacing Addr=0xf7f4ea6ed1 | LRU=15
[CEASER][MIGRATE] Moving block: Addr=0x3a8818b319 | OldSet=26 → NewSet=4024 | Way=14
[CEASER][VICTIM] Set=4024 | VictimWay=3 | Replacing Addr=0xa3a0df37fb | LRU=15
[CEASER][MIGRATE] Moving block: Addr=0x3a8818b54c | OldSet=26 → NewSet=242 | Way=15
[CEASER][VICTIM] Set=242 | VictimWay=0 | Replacing Addr=0xa3a0df2e75 | LRU=15
[CEASER][REKEY] Rekeying Set 27 → Epoch 1 at cycle 560004
[CEASER][MIGRATE] Moving block: Addr=0xa3a0df2d69 | OldSet=27 → NewSet=3306 | Way=0
[CEASER][VICTIM] Set=3306 | VictimWay=3 | Replacing Addr=0x512a98db37 | LRU=15
[CEASER][MIGRATE] Moving block: Addr=0xa3a0df330f | OldSet=27 → NewSet=2229 | Way=1
[CEASER][VICTIM] Set=2229 | VictimWay=3 | Replacing Addr=0x26542a97a5 | LRU=15
[CEASER][MIGRATE] Moving block: Addr=0xf7f4ea4014 | OldSet=27 → NewSet=3173 | Way=2
[CEASER][VICTIM] Set=3173 | VictimWay=1 | Replacing Addr=0x95eea1e0e1 | LRU=15
[CEASER][MIGRATE] Moving block: Addr=0x95eea20dcc | OldSet=27 → NewSet=2077 | Way=3
[CEASER][VICTIM] Set=2077 | VictimWay=12 | Replacing Addr=0x26542a98f2 | LRU=15
[CEASER][MIGRATE] Moving block: Addr=0x95eea213aa | OldSet=27 → NewSet=3138 | Way=4
[CEASER][VICTIM] Set=3138 | VictimWay=13 | Replacing Addr=0xbfd401ff42 | LRU=15
[CEASER][MIGRATE] Moving block: Addr=0x95eea215ff | OldSet=27 → NewSet=776 | Way=5
[CEASER][VICTIM] Set=776 | VictimWay=2 | Replacing Addr=0x2b4cc0a983 | LRU=15
[CEASER][MIGRATE] Moving block: Addr=0x95eea221b9 | OldSet=27 → NewSet=1813 | Way=6
[CEASER][VICTIM] Set=1813 | VictimWay=5 | Replacing Addr=0x26542a96ce | LRU=15
[CEASER][MIGRATE] Moving block: Addr=0x99c4f0f35d | OldSet=27 → NewSet=2336 | Way=7
[CEASER][VICTIM] Set=2336 | VictimWay=4 | Replacing Addr=0xb1bc79309f | LRU=15
[CEASER][MIGRATE] Moving block: Addr=0x99c4f0f508 | OldSet=27 → NewSet=1642 | Way=8
[CEASER][VICTIM] Set=1642 | VictimWay=2 | Replacing Addr=0x95eea201a6 | LRU=15
[CEASER][MIGRATE] Moving block: Addr=0x37b6a1a274 | OldSet=27 → NewSet=2496 | Way=9
[CEASER][VICTIM] Set=2496 | VictimWay=9 | Replacing Addr=0xa00d791da3 | LRU=15
[CEASER][MIGRATE] Moving block: Addr=0x37b6a1a421 | OldSet=27 → NewSet=1674 | Way=10
[CEASER][VICTIM] Set=1674 | VictimWay=13 | Replacing Addr=0x95eea1d253 | LRU=15
[CEASER][MIGRATE] Moving block: Addr=0xa3a0df2b3c | OldSet=27 → NewSet=928 | Way=11
[CEASER][VICTIM] Set=928 | VictimWay=4 | Replacing Addr=0x512a98dcdf | LRU=15
[CEASER][MIGRATE] Moving block: Addr=0x8d77fea1a7 | OldSet=27 → NewSet=1832 | Way=12
[CEASER][VICTIM] Set=1832 | VictimWay=2 | Replacing Addr=0x86af5ff618 | LRU=15
[CEASER][MIGRATE] Moving block: Addr=0x8d77fe8dd2 | OldSet=27 → NewSet=2080 | Way=13
[CEASER][VICTIM] Set=2080 | VictimWay=3 | Replacing Addr=0x26542a95a9 | LRU=15
[CEASER][MIGRATE] Moving block: Addr=0x8d77fe95e1 | OldSet=27 → NewSet=821 | Way=14
[CEASER][VICTIM] Set=821 | VictimWay=5 | Replacing Addr=0x95eea1bae4 | LRU=15
[CEASER][MIGRATE] Moving block: Addr=0x8d77fe93b4 | OldSet=27 → NewSet=3199 | Way=15
[CEASER][VICTIM] Set=3199 | VictimWay=9 | Replacing Addr=0x95eea1c5c8 | LRU=15
[CEASER][REKEY] Rekeying Set 28 → Epoch 1 at cycle 580004
[CEASER][MIGRATE] Moving block: Addr=0x37b6a1ad80 | OldSet=28 → NewSet=1528 | Way=0
[CEASER][VICTIM] Set=1528 | VictimWay=4 | Replacing Addr=0x95eea21109 | LRU=15
[CEASER][MIGRATE] Moving block: Addr=0xa3a0df3aae | OldSet=28 → NewSet=3015 | Way=1
[CEASER][VICTIM] Set=3015 | VictimWay=12 | Replacing Addr=0x99c4f10aaa | LRU=15
[CEASER][MIGRATE] Moving block: Addr=0x2b4cc072ee | OldSet=28 → NewSet=2091 | Way=2
[CEASER][VICTIM] Set=2091 | VictimWay=7 | Replacing Addr=0x95eea216af | LRU=15
[CEASER][MIGRATE] Moving block: Addr=0x2b4cc074bb | OldSet=28 → NewSet=1889 | Way=3
[CEASER][VICTIM] Set=1889 | VictimWay=13 | Replacing Addr=0x8d77fe896a | LRU=15
[CEASER][MIGRATE] Moving block: Addr=0x86af5ff695 | OldSet=28 → NewSet=2045 | Way=4
[CEASER][VICTIM] Set=2045 | VictimWay=11 | Replacing Addr=0x99c4f11ce4 | LRU=15
[CEASER][MIGRATE] Moving block: Addr=0xb1bc7932bc | OldSet=28 → NewSet=4073 | Way=5
[CEASER][VICTIM] Set=4073 | VictimWay=3 | Replacing Addr=0x99c4f11879 | LRU=15
[CEASER][MIGRATE] Moving block: Addr=0x26542a9b18 | OldSet=28 → NewSet=1831 | Way=6
[CEASER][VICTIM] Set=1831 | VictimWay=15 | Replacing Addr=0x8d77fe8c80 | LRU=15
[CEASER][MIGRATE] Moving block: Addr=0x95eea22818 | OldSet=28 → NewSet=1127 | Way=7
[CEASER][VICTIM] Set=1127 | VictimWay=3 | Replacing Addr=0x8d77fe76f1 | LRU=15
[CEASER][MIGRATE] Moving block: Addr=0x95eea2367e | OldSet=28 → NewSet=56 | Way=8
[CEASER][VICTIM] Set=56 | VictimWay=13 | Replacing Addr=0x8d77fe83be | LRU=15
[CEASER][MIGRATE] Moving block: Addr=0x99c4f0fca9 | OldSet=28 → NewSet=1304 | Way=9
[CEASER][VICTIM] Set=1304 | VictimWay=7 | Replacing Addr=0x99c4f11dba | LRU=15
[CEASER][MIGRATE] Moving block: Addr=0x8d77fe9a15 | OldSet=28 → NewSet=3853 | Way=10
[CEASER][VICTIM] Set=3853 | VictimWay=12 | Replacing Addr=0x95eea232d4 | LRU=15
[CEASER][MIGRATE] Moving block: Addr=0x37b6a181f5 | OldSet=28 → NewSet=2800 | Way=11
[CEASER][VICTIM] Set=2800 | VictimWay=14 | Replacing Addr=0x8d77fe8718 | LRU=15
[CEASER][MIGRATE] Moving block: Addr=0x37b6a187a0 | OldSet=28 → NewSet=1466 | Way=12
[CEASER][VICTIM] Set=1466 | VictimWay=8 | Replacing Addr=0x95eea21e88 | LRU=15
[CEASER][MIGRATE] Moving block: Addr=0x37b6a19f93 | OldSet=28 → NewSet=3759 | Way=13
[CEASER][VICTIM] Set=3759 | VictimWay=5 | Replacing Addr=0x99c4f11101 | LRU=15
[CEASER][MIGRATE] Moving block: Addr=0x37b6a199c6 | OldSet=28 → NewSet=485 | Way=14
[CEASER][VICTIM] Set=485 | VictimWay=10 | Replacing Addr=0x95eea1e5da | LRU=15
[CEASER][MIGRATE] Moving block: Addr=0x37b6a1abd5 | OldSet=28 → NewSet=2738 | Way=15
[CEASER][VICTIM] Set=2738 | VictimWay=6 | Replacing Addr=0x95eea210b4 | LRU=15
[CEASER][REKEY] Rekeying Set 29 → Epoch 1 at cycle 600004
[CEASER][MIGRATE] Moving block: Addr=0x2b4cc09983 | OldSet=29 → NewSet=3058 | Way=0
[CEASER][VICTIM] Set=3058 | VictimWay=9 | Replacing Addr=0xf7f4ea4125 | LRU=15
[CEASER][MIGRATE] Moving block: Addr=0x2b4cc09fd6 | OldSet=29 → NewSet=1208 | Way=1
[CEASER][VICTIM] Set=1208 | VictimWay=9 | Replacing Addr=0xf7f4ea58ab | LRU=15
[CEASER][MIGRATE] Moving block: Addr=0x2b4cc0ab90 | OldSet=29 → NewSet=165 | Way=2
[CEASER][VICTIM] Set=165 | VictimWay=5 | Replacing Addr=0x37b6a19b8d | LRU=15
[CEASER][MIGRATE] Moving block: Addr=0x95eea1cb3d | OldSet=29 → NewSet=409 | Way=3
[CEASER][VICTIM] Set=409 | VictimWay=13 | Replacing Addr=0x8d77fe74af | LRU=15
[CEASER][MIGRATE] Moving block: Addr=0x512a98d7ce | OldSet=29 → NewSet=2936 | Way=4
[CEASER][VICTIM] Set=2936 | VictimWay=8 | Replacing Addr=0x8d77fe9148 | LRU=15
[CEASER][MIGRATE] Moving block: Addr=0x95eea1d30e | OldSet=29 → NewSet=2700 | Way=5
[CEASER][VICTIM] Set=2700 | VictimWay=12 | Replacing Addr=0x37b6a185db | LRU=15
[CEASER][MIGRATE] Moving block: Addr=0x95eea1e748 | OldSet=29 → NewSet=3729 | Way=6
[CEASER][VICTIM] Set=3729 | VictimWay=0 | Replacing Addr=0xf7f4ea386c | LRU=15
[CEASER][MIGRATE] Moving block: Addr=0x95eea1cd68 | OldSet=29 → NewSet=3795 | Way=7
[CEASER][VICTIM] Set=3795 | VictimWay=15 | Replacing Addr=0x8d77fe7512 | LRU=15
[CEASER][MIGRATE] Moving block: Addr=0x95eea1ff7b | OldSet=29 → NewSet=1412 | Way=8
[CEASER][VICTIM] Set=1412 | VictimWay=15 | Replacing Addr=0x8d77fe8e61 | LRU=15
[CEASER][MIGRATE] Moving block: Addr=0x95eea1d55b | OldSet=29 → NewSet=1478 | Way=9
[CEASER][VICTIM] Set=1478 | VictimWay=14 | Replacing Addr=0x37b6a1a813 | LRU=15
[CEASER][MIGRATE] Moving block: Addr=0x95eea1e11d | OldSet=29 → NewSet=475 | Way=10
[CEASER][VICTIM] Set=475 | VictimWay=10 | Replacing Addr=0x37b6a17ea8 | LRU=15
[CEASER][MIGRATE] Moving block: Addr=0x95eea1f92e | OldSet=29 → NewSet=2766 | Way=11
[CEASER][VICTIM] Set=2766 | VictimWay=12 | Replacing Addr=0x37b6a18c0f | LRU=15
[CEASER][MIGRATE] Moving block: Addr=0x99c4f0f005 | OldSet=29 → NewSet=1158 | Way=12
[CEASER][VICTIM] Set=1158 | VictimWay=3 | Replacing Addr=0xf7f4ea3098 | LRU=15
[CEASER][MIGRATE] Moving block: Addr=0x99c4f1147b | OldSet=29 → NewSet=1807 | Way=13
[CEASER][VICTIM] Set=1807 | VictimWay=12 | Replacing Addr=0x8d77fe9e9f | LRU=15
[CEASER][MIGRATE] Moving block: Addr=0xf7f4ea5525 | OldSet=29 → NewSet=1636 | Way=14
[CEASER][VICTIM] Set=1636 | VictimWay=8 | Replacing Addr=0x37b6a1794b | LRU=15
[CEASER][MIGRATE] Moving block: Addr=0xf7f4ea6163 | OldSet=29 → NewSet=633 | Way=15
[CEASER][VICTIM] Set=633 | VictimWay=15 | Replacing Addr=0x8d77fe8603 | LRU=15
[CEASER][REKEY] Rekeying Set 30 → Epoch 1 at cycle 620004
[CEASER][MIGRATE] Moving block: Addr=0x99c4f123f7 | OldSet=30 → NewSet=487 | Way=0
[CEASER][VICTIM] Set=487 | VictimWay=6 | Replacing Addr=0x2b4cc075e3 | LRU=15
[CEASER][MIGRATE] Moving block: Addr=0x99c4f125a2 | OldSet=30 → NewSet=3757 | Way=1
[CEASER][VICTIM] Set=3757 | VictimWay=13 | Replacing Addr=0x8d77fe9ca5 | LRU=15
[CEASER][MIGRATE] Moving block: Addr=0x37b6a17734 | OldSet=30 → NewSet=3971 | Way=2
[CEASER][VICTIM] Set=3971 | VictimWay=0 | Replacing Addr=0x9f422b407f | LRU=15
[CEASER][MIGRATE] Moving block: Addr=0x37b6a17161 | OldSet=30 → NewSet=201 | Way=3
[CEASER][VICTIM] Set=201 | VictimWay=12 | Replacing Addr=0xf7f4ea3dc0 | LRU=15
[CEASER][MIGRATE] Moving block: Addr=0x2b4cc0827a | OldSet=30 → NewSet=530 | Way=4
[CEASER][VICTIM] Set=530 | VictimWay=14 | Replacing Addr=0xf7f4ea4acb | LRU=15
[CEASER][MIGRATE] Moving block: Addr=0x63d5a43596 | OldSet=30 → NewSet=773 | Way=5
[CEASER][VICTIM] Set=773 | VictimWay=14 | Replacing Addr=0x8d77fe8dd4 | LRU=15
[CEASER][MIGRATE] Moving block: Addr=0x2b4cc09a49 | OldSet=30 → NewSet=2311 | Way=6
[CEASER][VICTIM] Set=2311 | VictimWay=13 | Replacing Addr=0x8d77fe8257 | LRU=15
[CEASER][MIGRATE] Moving block: Addr=0x2b4cc0ae0f | OldSet=30 → NewSet=3354 | Way=7
[CEASER][VICTIM] Set=3354 | VictimWay=9 | Replacing Addr=0x2b4cc09062 | LRU=15
[CEASER][MIGRATE] Moving block: Addr=0x60a69baffb | OldSet=30 → NewSet=1093 | Way=8
[CEASER][VICTIM] Set=1093 | VictimWay=7 | Replacing Addr=0x26542aa0ee | LRU=15
[CEASER][MIGRATE] Moving block: Addr=0x95eea1c8f7 | OldSet=30 → NewSet=876 | Way=9
[CEASER][VICTIM] Set=876 | VictimWay=13 | Replacing Addr=0x8d77fe8de6 | LRU=15
[CEASER][MIGRATE] Moving block: Addr=0x95eea1cea2 | OldSet=30 → NewSet=3110 | Way=10
[CEASER][VICTIM] Set=3110 | VictimWay=15 | Replacing Addr=0x8d77fe9468 | LRU=15
[CEASER][MIGRATE] Moving block: Addr=0x95eea1e482 | OldSet=30 → NewSet=3172 | Way=11
[CEASER][VICTIM] Set=3172 | VictimWay=12 | Replacing Addr=0x86af5ff769 | LRU=15
[CEASER][MIGRATE] Moving block: Addr=0x95eea1fcb1 | OldSet=30 → NewSet=1905 | Way=12
[CEASER][VICTIM] Set=1905 | VictimWay=12 | Replacing Addr=0x2b4cc09fd3 | LRU=15
[CEASER][MIGRATE] Moving block: Addr=0x95eea1e2d7 | OldSet=30 → NewSet=814 | Way=13
[CEASER][VICTIM] Set=814 | VictimWay=6 | Replacing Addr=0x86af5ff6d4 | LRU=15
[CEASER][MIGRATE] Moving block: Addr=0x95eea1fae4 | OldSet=30 → NewSet=2107 | Way=14
[CEASER][VICTIM] Set=2107 | VictimWay=5 | Replacing Addr=0x2b4cc0aa28 | LRU=15
[CEASER][MIGRATE] Moving block: Addr=0x99c4f10f82 | OldSet=30 → NewSet=3823 | Way=15
[CEASER][VICTIM] Set=3823 | VictimWay=15 | Replacing Addr=0xf5cd59c55a | LRU=15
[CEASER][REKEY] Rekeying Set 31 → Epoch 1 at cycle 640004
[CEASER][MIGRATE] Moving block: Addr=0x95eea22d87 | OldSet=31 → NewSet=2520 | Way=0
[CEASER][VICTIM] Set=2520 | VictimWay=6 | Replacing Addr=0x8d77fe9063 | LRU=15
[CEASER][MIGRATE] Moving block: Addr=0x95eea21f94 | OldSet=31 → NewSet=655 | Way=1
[CEASER][VICTIM] Set=655 | VictimWay=15 | Replacing Addr=0x3b109b1a8e | LRU=15
[CEASER][MIGRATE] Moving block: Addr=0x95eea22bd2 | OldSet=31 → NewSet=1682 | Way=2
[CEASER][VICTIM] Set=1682 | VictimWay=9 | Replacing Addr=0xa3a0df2956 | LRU=15
[CEASER][MIGRATE] Moving block: Addr=0x95eea233e1 | OldSet=31 → NewSet=3463 | Way=3
[CEASER][VICTIM] Set=3463 | VictimWay=12 | Replacing Addr=0x95eea1f549 | LRU=15
[CEASER][MIGRATE] Moving block: Addr=0x95eea235b4 | OldSet=31 → NewSet=717 | Way=4
[CEASER][VICTIM] Set=717 | VictimWay=13 | Replacing Addr=0x95eea1f4f4 | LRU=15
[CEASER][MIGRATE] Moving block: Addr=0x99c4f0ff63 | OldSet=31 → NewSet=2029 | Way=5
[CEASER][VICTIM] Set=2029 | VictimWay=0 | Replacing Addr=0x95eea219dd | LRU=15
[CEASER][MIGRATE] Moving block: Addr=0x37b6a1846a | OldSet=31 → NewSet=1871 | Way=6
[CEASER][VICTIM] Set=1871 | VictimWay=13 | Replacing Addr=0x512a98d95a | LRU=15
[CEASER][MIGRATE] Moving block: Addr=0x37b6a19c59 | OldSet=31 → NewSet=3162 | Way=7
[CEASER][VICTIM] Set=3162 | VictimWay=15 | Replacing Addr=0x60a69bb005 | LRU=15
[CEASER][MIGRATE] Moving block: Addr=0x37b6a1a81f | OldSet=31 → NewSet=2119 | Way=8
[CEASER][VICTIM] Set=2119 | VictimWay=5 | Replacing Addr=0x99c4f10ab5 | LRU=15
[CEASER][MIGRATE] Moving block: Addr=0x37b6a1b02c | OldSet=31 → NewSet=850 | Way=9
[CEASER][VICTIM] Set=850 | VictimWay=8 | Replacing Addr=0xb1bc7933ed | LRU=15
[CEASER][MIGRATE] Moving block: Addr=0xa3a0df3f31 | OldSet=31 → NewSet=1656 | Way=10
[CEASER][VICTIM] Set=1656 | VictimWay=8 | Replacing Addr=0x8d77fe9108 | LRU=15
[CEASER][MIGRATE] Moving block: Addr=0x2b4cc07124 | OldSet=31 → NewSet=2782 | Way=11
[CEASER][VICTIM] Set=2782 | VictimWay=13 | Replacing Addr=0x95eea1f9c8 | LRU=15
[CEASER][MIGRATE] Moving block: Addr=0x2b4cc07771 | OldSet=31 → NewSet=1428 | Way=12
[CEASER][VICTIM] Set=1428 | VictimWay=4 | Replacing Addr=0x95eea1cc33 | LRU=15
[CEASER][MIGRATE] Moving block: Addr=0x95eea1e005 | OldSet=31 → NewSet=482 | Way=13
[CEASER][VICTIM] Set=482 | VictimWay=6 | Replacing Addr=0x95eea1f448 | LRU=15
[CEASER][MIGRATE] Moving block: Addr=0x95eea219c1 | OldSet=31 → NewSet=3525 | Way=14
[CEASER][VICTIM] Set=3525 | VictimWay=13 | Replacing Addr=0x95eea1fc9d | LRU=15
[CEASER][MIGRATE] Moving block: Addr=0x95eea207a7 | OldSet=31 → NewSet=2458 | Way=15
[CEASER][VICTIM] Set=2458 | VictimWay=10 | Replacing Addr=0x8d77fe99b7 | LRU=15
[CEASER][REKEY] Rekeying Set 32 → Epoch 1 at cycle 660005
[CEASER][MIGRATE] Moving block: Addr=0x2b4cc094d8 | OldSet=32 → NewSet=2545 | Way=0
[CEASER][VICTIM] Set=2545 | VictimWay=7 | Replacing Addr=0xf7f4ea4d4c | LRU=15
[CEASER][MIGRATE] Moving block: Addr=0x2b4cc08abe | OldSet=32 → NewSet=3502 | Way=1
[CEASER][VICTIM] Set=3502 | VictimWay=14 | Replacing Addr=0x95eea21a15 | LRU=15
[CEASER][MIGRATE] Moving block: Addr=0x2b4cc0a6cb | OldSet=32 → NewSet=678 | Way=2
[CEASER][VICTIM] Set=678 | VictimWay=11 | Replacing Addr=0x8d77fe9437 | LRU=15
[CEASER][MIGRATE] Moving block: Addr=0xb1bc793014 | OldSet=32 → NewSet=2669 | Way=3
[CEASER][VICTIM] Set=2669 | VictimWay=12 | Replacing Addr=0x8d77fe9cf8 | LRU=15
[CEASER][MIGRATE] Moving block: Addr=0x512a98da95 | OldSet=32 → NewSet=2427 | Way=4
[CEASER][VICTIM] Set=2427 | VictimWay=6 | Replacing Addr=0x95eea2314a | LRU=15
[...]
[CEASER][MIGRATE] Moving block: Addr=0xf7f4ea5e0f | OldSet=380 → NewSet=1229 | Way=9
[CEASER][VICTIM] Set=1229 | VictimWay=1 | Replacing Addr=0x76cbb1beec | LRU=15
[CEASER][MIGRATE] Moving block: Addr=0x2b4cc08ccf | OldSet=380 → NewSet=3332 | Way=10
[CEASER][VICTIM] Set=3332 | VictimWay=5 | Replacing Addr=0x95eea1ebcb | LRU=15
[CEASER][MIGRATE] Moving block: Addr=0x2b4cc094fc | OldSet=380 → NewSet=1553 | Way=11
[CEASER][VICTIM] Set=1553 | VictimWay=14 | Replacing Addr=0x37b6a190e5 | LRU=15
[CEASER][MIGRATE] Moving block: Addr=0x3a8818aff4 | OldSet=380 → NewSet=2620 | Way=12
[CEASER][VICTIM] Set=2620 | VictimWay=0 | Replacing Addr=0xf7f4ea54ca | LRU=15
[CEASER][MIGRATE] Moving block: Addr=0x99c4f10762 | OldSet=380 → NewSet=3763 | Way=13
[CEASER][VICTIM] Set=3763 | VictimWay=15 | Replacing Addr=0x2b4cc0713c | LRU=15
[CEASER][MIGRATE] Moving block: Addr=0x99c4f11904 | OldSet=380 → NewSet=2796 | Way=14
[CEASER][VICTIM] Set=2796 | VictimWay=7 | Replacing Addr=0x99c4f125fe | LRU=15
[CEASER][MIGRATE] Moving block: Addr=0x95eea1c0f9 | OldSet=380 → NewSet=829 | Way=15
[CEASER][VICTIM] Set=829 | VictimWay=9 | Replacing Addr=0xb1bc7930c2 | LRU=15
[CEASER][REKEY] Rekeying Set 381 → Epoch 1 at cycle 7640057
[CEASER][MIGRATE] Moving block: Addr=0x3a8818b04f | OldSet=381 → NewSet=715 | Way=0
[CEASER][VICTIM] Set=715 | VictimWay=12 | Replacing Addr=0x95eea22c63 | LRU=15
[CEASER][MIGRATE] Moving block: Addr=0x2b4cc079c4 | OldSet=381 → NewSet=2690 | Way=1
[CEASER][VICTIM] Set=2690 | VictimWay=2 | Replacing Addr=0x37b6a17efb | LRU=15
[CEASER][MIGRATE] Moving block: Addr=0x37b6a18adf | OldSet=381 → NewSet=2137 | Way=2
[CEASER][VICTIM] Set=2137 | VictimWay=10 | Replacing Addr=0x95eea1fce4 | LRU=15
[CEASER][MIGRATE] Moving block: Addr=0x95eea22332 | OldSet=381 → NewSet=1742 | Way=3
[CEASER][VICTIM] Set=1742 | VictimWay=8 | Replacing Addr=0x95eea23756 | LRU=15
[CEASER][MIGRATE] Moving block: Addr=0x99c4f0f1d6 | OldSet=381 → NewSet=2299 | Way=4
[CEASER][VICTIM] Set=2299 | VictimWay=15 | Replacing Addr=0x99c4f1209b | LRU=15
[CEASER][MIGRATE] Moving block: Addr=0x2b4cc07f91 | OldSet=381 → NewSet=1480 | Way=5
[CEASER][VICTIM] Set=1480 | VictimWay=11 | Replacing Addr=0x95eea1be14 | LRU=15
[CEASER][MIGRATE] Moving block: Addr=0x37b6a1a6aa | OldSet=381 → NewSet=1873 | Way=6
[CEASER][VICTIM] Set=1873 | VictimWay=8 | Replacing Addr=0x99c4f101eb | LRU=15
[CEASER][MIGRATE] Moving block: Addr=0xa3a0df3184 | OldSet=381 → NewSet=2414 | Way=7
[CEASER][VICTIM] Set=2414 | VictimWay=13 | Replacing Addr=0x95eea21a48 | LRU=15
[CEASER][MIGRATE] Moving block: Addr=0x26542aa221 | OldSet=381 → NewSet=3801 | Way=8
[CEASER][VICTIM] Set=3801 | VictimWay=14 | Replacing Addr=0x99c4f12116 | LRU=15
[CEASER][MIGRATE] Moving block: Addr=0xa3a0df37d1 | OldSet=381 → NewSet=1572 | Way=9
[CEASER][VICTIM] Set=1572 | VictimWay=2 | Replacing Addr=0xcd14ec90b4 | LRU=15
[CEASER][MIGRATE] Moving block: Addr=0x95eea21774 | OldSet=381 → NewSet=723 | Way=10
[CEASER][VICTIM] Set=723 | VictimWay=12 | Replacing Addr=0x99c4f12ed0 | LRU=15
[CEASER][MIGRATE] Moving block: Addr=0x3a8818b04f | OldSet=381 → NewSet=715 | Way=11
[CEASER][VICTIM] Set=715 | VictimWay=13 | Replacing Addr=0x95eea23205 | LRU=15
[CEASER][MIGRATE] Moving block: Addr=0x9f422b405d | OldSet=381 → NewSet=2184 | Way=12
[CEASER][VICTIM] Set=2184 | VictimWay=1 | Replacing Addr=0x2b4cc0755d | LRU=15
[CEASER][MIGRATE] Moving block: Addr=0x9f422b405d | OldSet=381 → NewSet=2184 | Way=13
[CEASER][VICTIM] Set=2184 | VictimWay=10 | Replacing Addr=0x95eea21db8 | LRU=15
[CEASER][MIGRATE] Moving block: Addr=0x95eea22567 | OldSet=381 → NewSet=2436 | Way=14
[CEASER][VICTIM] Set=2436 | VictimWay=8 | Replacing Addr=0xf7f4ea602b | LRU=15
[CEASER][MIGRATE] Moving block: Addr=0x95eea20912 | OldSet=381 → NewSet=1676 | Way=15
[CEASER][VICTIM] Set=1676 | VictimWay=14 | Replacing Addr=0x76cbb1c395 | LRU=15
[CEASER][REKEY] Rekeying Set 382 → Epoch 1 at cycle 7660057
[CEASER][MIGRATE] Moving block: Addr=0x37b6a18915 | OldSet=382 → NewSet=2732 | Way=0
[CEASER][VICTIM] Set=2732 | VictimWay=14 | Replacing Addr=0xa3a0df2b15 | LRU=15
[CEASER][MIGRATE] Moving block: Addr=0x99c4f0f21c | OldSet=382 → NewSet=2574 | Way=1
[CEASER][VICTIM] Set=2574 | VictimWay=4 | Replacing Addr=0xcd14ec9dee | LRU=15
[CEASER][MIGRATE] Moving block: Addr=0x37b6a1a560 | OldSet=382 → NewSet=1444 | Way=2
[CEASER][VICTIM] Set=1444 | VictimWay=6 | Replacing Addr=0x99c4f120dd | LRU=15
[CEASER][MIGRATE] Moving block: Addr=0x37b6a19773 | OldSet=382 → NewSet=3827 | Way=3
[CEASER][VICTIM] Set=3827 | VictimWay=3 | Replacing Addr=0xcd14eca0d9 | LRU=15
[CEASER][MIGRATE] Moving block: Addr=0xc3d013d584 | OldSet=382 → NewSet=1708 | Way=4
[CEASER][VICTIM] Set=1708 | VictimWay=13 | Replacing Addr=0x95eea1f0de | LRU=15
[CEASER][MIGRATE] Moving block: Addr=0x95eea1d0c2 | OldSet=382 → NewSet=111 | Way=5
[CEASER][VICTIM] Set=111 | VictimWay=10 | Replacing Addr=0x2b4cc07dd5 | LRU=15
[CEASER][MIGRATE] Moving block: Addr=0x95eea226ad | OldSet=382 → NewSet=2929 | Way=6
[CEASER][VICTIM] Set=2929 | VictimWay=11 | Replacing Addr=0xf7f4ea30f0 | LRU=15
[CEASER][MIGRATE] Moving block: Addr=0x95eea20c8d | OldSet=382 → NewSet=2867 | Way=7
[CEASER][VICTIM] Set=2867 | VictimWay=12 | Replacing Addr=0x99c4f1094b | LRU=15
[CEASER][MIGRATE] Moving block: Addr=0x26542aa1eb | OldSet=382 → NewSet=3116 | Way=8
[CEASER][VICTIM] Set=3116 | VictimWay=0 | Replacing Addr=0xcd14eca022 | LRU=15
[CEASER][MIGRATE] Moving block: Addr=0xa3a0df341b | OldSet=382 → NewSet=1233 | Way=9
[CEASER][VICTIM] Set=1233 | VictimWay=10 | Replacing Addr=0x95eea1eaf4 | LRU=15
[CEASER][MIGRATE] Moving block: Addr=0x99c4f0f449 | OldSet=382 → NewSet=1348 | Way=10
[CEASER][VICTIM] Set=1348 | VictimWay=0 | Replacing Addr=0x2884c862a1 | LRU=15
[CEASER][MIGRATE] Moving block: Addr=0x26542aa00c | OldSet=382 → NewSet=3952 | Way=11
[CEASER][VICTIM] Set=3952 | VictimWay=4 | Replacing Addr=0x95eea1e4a7 | LRU=15
[CEASER][MIGRATE] Moving block: Addr=0x95eea212eb | OldSet=382 → NewSet=3948 | Way=12
[CEASER][VICTIM] Set=3948 | VictimWay=12 | Replacing Addr=0x37b6a184b2 | LRU=15
[CEASER][MIGRATE] Moving block: Addr=0xa3a0df2a7d | OldSet=382 → NewSet=142 | Way=13
[CEASER][VICTIM] Set=142 | VictimWay=8 | Replacing Addr=0x95eea20995 | LRU=15
[CEASER][MIGRATE] Moving block: Addr=0x95eea214be | OldSet=382 → NewSet=38 | Way=14
[CEASER][VICTIM] Set=38 | VictimWay=12 | Replacing Addr=0x37b6a1af2f | LRU=15
[CEASER][MIGRATE] Moving block: Addr=0x2b4cc07c5b | OldSet=382 → NewSet=1853 | Way=15
[CEASER][VICTIM] Set=1853 | VictimWay=8 | Replacing Addr=0x37b6a1aa7a | LRU=15
[CEASER][REKEY] Rekeying Set 383 → Epoch 1 at cycle 7680057
[CEASER][MIGRATE] Moving block: Addr=0x95eea1c588 | OldSet=383 → NewSet=3727 | Way=0
[CEASER][VICTIM] Set=3727 | VictimWay=10 | Replacing Addr=0x37b6a17c22 | LRU=15
[CEASER][MIGRATE] Moving block: Addr=0x95eea1c3dd | OldSet=383 → NewSet=453 | Way=1
[CEASER][VICTIM] Set=453 | VictimWay=4 | Replacing Addr=0x1d06990809 | LRU=15
[CEASER][MIGRATE] Moving block: Addr=0x1d06990988 | OldSet=383 → NewSet=2209 | Way=2
[CEASER][VICTIM] Set=2209 | VictimWay=11 | Replacing Addr=0x95eea1c6a2 | LRU=15
[CEASER][MIGRATE] Moving block: Addr=0x95eea1efa8 | OldSet=383 → NewSet=3789 | Way=3
[CEASER][VICTIM] Set=3789 | VictimWay=0 | Replacing Addr=0xcd14ec982c | LRU=15
[CEASER][MIGRATE] Moving block: Addr=0xf7f4ea3d32 | OldSet=383 → NewSet=655 | Way=4
[CEASER][VICTIM] Set=655 | VictimWay=7 | Replacing Addr=0x99c4f12266 | LRU=15
[CEASER][MIGRATE] Moving block: Addr=0x95eea1f1ce | OldSet=383 → NewSet=2706 | Way=5
[CEASER][VICTIM] Set=2706 | VictimWay=2 | Replacing Addr=0x99c4f0fbb0 | LRU=15
[CEASER][MIGRATE] Moving block: Addr=0x95eea1ddbb | OldSet=383 → NewSet=1434 | Way=6
[CEASER][VICTIM] Set=1434 | VictimWay=8 | Replacing Addr=0x76cbb1c128 | LRU=15
[CEASER][MIGRATE] Moving block: Addr=0xf7f4ea5b90 | OldSet=383 → NewSet=2418 | Way=7
[CEASER][VICTIM] Set=2418 | VictimWay=1 | Replacing Addr=0x95eea1e7f6 | LRU=15
[CEASER][MIGRATE] Moving block: Addr=0x2b4cc08950 | OldSet=383 → NewSet=187 | Way=8
[CEASER][VICTIM] Set=187 | VictimWay=15 | Replacing Addr=0xa3a0df3d87 | LRU=15
[CEASER][MIGRATE] Moving block: Addr=0x99c4f104a8 | OldSet=383 → NewSet=3142 | Way=9
[CEASER][VICTIM] Set=3142 | VictimWay=4 | Replacing Addr=0x1d069908ad | LRU=15
[CEASER][MIGRATE] Moving block: Addr=0x1d06990fdd | OldSet=383 → NewSet=2027 | Way=10
[CEASER][VICTIM] Set=2027 | VictimWay=14 | Replacing Addr=0x95eea1b98e | LRU=15
[CEASER][MIGRATE] Moving block: Addr=0x2b4cc0a370 | OldSet=383 → NewSet=249 | Way=11
[CEASER][VICTIM] Set=249 | VictimWay=3 | Replacing Addr=0x26542a95e5 | LRU=15
[CEASER][MIGRATE] Moving block: Addr=0x99c4f11ace | OldSet=383 → NewSet=2073 | Way=12
[CEASER][VICTIM] Set=2073 | VictimWay=12 | Replacing Addr=0x76cbb1ba2c | LRU=15
[CEASER][MIGRATE] Moving block: Addr=0x1d069911bb | OldSet=383 → NewSet=948 | Way=13
[CEASER][VICTIM] Set=948 | VictimWay=14 | Replacing Addr=0x99c4f110ba | LRU=15
[CEASER][MIGRATE] Moving block: Addr=0x37b6a17a4b | OldSet=383 → NewSet=608 | Way=14
[CEASER][VICTIM] Set=608 | VictimWay=3 | Replacing Addr=0x99c4f10136 | LRU=15
[CEASER][MIGRATE] Moving block: Addr=0x95eea1bd4c | OldSet=383 → NewSet=301 | Way=15
[CEASER][VICTIM] Set=301 | VictimWay=3 | Replacing Addr=0x99c4f0f6d4 | LRU=15
[CEASER][REKEY] Rekeying Set 384 → Epoch 1 at cycle 7700057
[CEASER][MIGRATE] Moving block: Addr=0x95eea1bcb8 | OldSet=384 → NewSet=1080 | Way=0
[CEASER][VICTIM] Set=1080 | VictimWay=14 | Replacing Addr=0x95eea1f1db | LRU=15
[CEASER][MIGRATE] Moving block: Addr=0x95eea1f66f | OldSet=384 → NewSet=205 | Way=1
[CEASER][VICTIM] Set=205 | VictimWay=14 | Replacing Addr=0xf7f4ea6009 | LRU=15
[CEASER][MIGRATE] Moving block: Addr=0xf7f4ea4257 | OldSet=384 → NewSet=1906 | Way=2
[CEASER][VICTIM] Set=1906 | VictimWay=3 | Replacing Addr=0x95eea1e2d2 | LRU=15
[CEASER][MIGRATE] Moving block: Addr=0x2b4cc088a4 | OldSet=384 → NewSet=1454 | Way=3
[CEASER][VICTIM] Set=1454 | VictimWay=13 | Replacing Addr=0xf7f4ea3626 | LRU=15
[CEASER][MIGRATE] Moving block: Addr=0x2b4cc08ef1 | OldSet=384 → NewSet=2788 | Way=4
[CEASER][VICTIM] Set=2788 | VictimWay=5 | Replacing Addr=0x60a69bae78 | LRU=15
[CEASER][MIGRATE] Moving block: Addr=0x95eea1e809 | OldSet=384 → NewSet=1170 | Way=5
[CEASER][VICTIM] Set=1170 | VictimWay=10 | Replacing Addr=0x37b6a1a07c | LRU=15
[CEASER][MIGRATE] Moving block: Addr=0x95eea1ee5c | OldSet=384 → NewSet=3032 | Way=6
[CEASER][VICTIM] Set=3032 | VictimWay=15 | Replacing Addr=0x95eea233ab | LRU=15
[CEASER][MIGRATE] Moving block: Addr=0x1d0699087c | OldSet=384 → NewSet=3508 | Way=7
[CEASER][VICTIM] Set=3508 | VictimWay=10 | Replacing Addr=0x95eea23014 | LRU=15
[CEASER][MIGRATE] Moving block: Addr=0xf7f4ea3a93 | OldSet=384 → NewSet=2256 | Way=8
[CEASER][VICTIM] Set=2256 | VictimWay=0 | Replacing Addr=0x95eea20356 | LRU=15
[CEASER][MIGRATE] Moving block: Addr=0xf7f4ea4402 | OldSet=384 → NewSet=2104 | Way=9
[CEASER][VICTIM] Set=2104 | VictimWay=1 | Replacing Addr=0x2b4cc083c2 | LRU=15
[CEASER][MIGRATE] Moving block: Addr=0xf7f4ea5a64 | OldSet=384 → NewSet=3175 | Way=10
[CEASER][VICTIM] Set=3175 | VictimWay=4 | Replacing Addr=0xa3a0df3ecd | LRU=15
[CEASER][MIGRATE] Moving block: Addr=0xf7f4ea6e22 | OldSet=384 → NewSet=2170 | Way=11
[CEASER][VICTIM] Set=2170 | VictimWay=9 | Replacing Addr=0x95eea1c6ce | LRU=15
[CEASER][MIGRATE] Moving block: Addr=0x1d06990e29 | OldSet=384 → NewSet=766 | Way=12
[CEASER][VICTIM] Set=766 | VictimWay=0 | Replacing Addr=0x3a8818b12a | LRU=15
[CEASER][MIGRATE] Moving block: Addr=0x2b4cc096c2 | OldSet=384 → NewSet=497 | Way=13
[CEASER][VICTIM] Set=497 | VictimWay=5 | Replacing Addr=0x42194c5ded | LRU=15
[CEASER][MIGRATE] Moving block: Addr=0x2b4cc0a4d1 | OldSet=384 → NewSet=2726 | Way=14
[CEASER][VICTIM] Set=2726 | VictimWay=14 | Replacing Addr=0x2b4cc08a2d | LRU=15
[CEASER][MIGRATE] Moving block: Addr=0x37b6a17bbf | OldSet=384 → NewSet=1909 | Way=15
[CEASER][VICTIM] Set=1909 | VictimWay=13 | Replacing Addr=0x37b6a178c5 | LRU=15
[CEASER][REKEY] Rekeying Set 385 → Epoch 1 at cycle 7720057
[CEASER][MIGRATE] Moving block: Addr=0x2b4cc09121 | OldSet=385 → NewSet=1587 | Way=0
[CEASER][VICTIM] Set=1587 | VictimWay=9 | Replacing Addr=0x95eea1fc6d | LRU=15
[CEASER][MIGRATE] Moving block: Addr=0x95eea2131f | OldSet=385 → NewSet=2681 | Way=1
[CEASER][VICTIM] Set=2681 | VictimWay=4 | Replacing Addr=0x95eea1ccf2 | LRU=15
[CEASER][MIGRATE] Moving block: Addr=0x37b6a19687 | OldSet=385 → NewSet=3046 | Way=2
[CEASER][VICTIM] Set=3046 | VictimWay=9 | Replacing Addr=0xa3a0df31ea | LRU=15
[CEASER][MIGRATE] Moving block: Addr=0x1d06991134 | OldSet=385 → NewSet=2683 | Way=3
[CEASER][VICTIM] Set=2683 | VictimWay=13 | Replacing Addr=0x1d06991008 | LRU=15
[CEASER][MIGRATE] Moving block: Addr=0x2b4cc07daf | OldSet=385 → NewSet=552 | Way=4
[CEASER][VICTIM] Set=552 | VictimWay=10 | Replacing Addr=0x60a69baf16 | LRU=15
[CEASER][MIGRATE] Moving block: Addr=0x2b4cc07bfa | OldSet=385 → NewSet=3426 | Way=5
[CEASER][VICTIM] Set=3426 | VictimWay=14 | Replacing Addr=0x2b4cc09b19 | LRU=15
[CEASER][MIGRATE] Moving block: Addr=0x37b6a188e1 | OldSet=385 → NewSet=4025 | Way=6
[CEASER][VICTIM] Set=4025 | VictimWay=5 | Replacing Addr=0x3a8818b1b8 | LRU=15
[CEASER][MIGRATE] Moving block: Addr=0x2ce068edc | OldSet=385 → NewSet=3641 | Way=7
[CEASER][VICTIM] Set=3641 | VictimWay=12 | Replacing Addr=0x2884c8636a | LRU=15
[CEASER][MIGRATE] Moving block: Addr=0x37b6a1a2c1 | OldSet=385 → NewSet=4091 | Way=8
[CEASER][VICTIM] Set=4091 | VictimWay=5 | Replacing Addr=0x95eea1e3c9 | LRU=15
[CEASER][MIGRATE] Moving block: Addr=0x1d06991134 | OldSet=385 → NewSet=2683 | Way=9
[CEASER][VICTIM] Set=2683 | VictimWay=11 | Replacing Addr=0x37b6a183a5 | LRU=15
[CEASER][MIGRATE] Moving block: Addr=0x95eea22759 | OldSet=385 → NewSet=3684 | Way=10
[CEASER][VICTIM] Set=3684 | VictimWay=14 | Replacing Addr=0x76cbb1c363 | LRU=15
[CEASER][MIGRATE] Moving block: Addr=0x37b6a18eb4 | OldSet=385 → NewSet=243 | Way=11
[CEASER][VICTIM] Set=243 | VictimWay=6 | Replacing Addr=0x95eea1bf11 | LRU=15
[CEASER][MIGRATE] Moving block: Addr=0x95eea20d79 | OldSet=385 → NewSet=3622 | Way=12
[CEASER][VICTIM] Set=3622 | VictimWay=8 | Replacing Addr=0x95eea229c6 | LRU=15
[CEASER][MIGRATE] Moving block: Addr=0xa3a0df33ba | OldSet=385 → NewSet=3726 | Way=13
[CEASER][VICTIM] Set=3726 | VictimWay=8 | Replacing Addr=0xbfd401e06e | LRU=15
[CEASER][MIGRATE] Moving block: Addr=0xa3a0df35ef | OldSet=385 → NewSet=452 | Way=14
[CEASER][VICTIM] Set=452 | VictimWay=4 | Replacing Addr=0x95eea20b59 | LRU=15
[CEASER][MIGRATE] Moving block: Addr=0x95eea20b2c | OldSet=385 → NewSet=364 | Way=15
[CEASER][VICTIM] Set=364 | VictimWay=6 | Replacing Addr=0x95eea2287b | LRU=15
[CEASER][REKEY] Rekeying Set 386 → Epoch 1 at cycle 7740057
[CEASER][MIGRATE] Moving block: Addr=0x99c4f1113e | OldSet=386 → NewSet=1436 | Way=0
[CEASER][VICTIM] Set=1436 | VictimWay=9 | Replacing Addr=0x95eea1d38a | LRU=15
[CEASER][MIGRATE] Moving block: Addr=0x95eea222c6 | OldSet=386 → NewSet=987 | Way=1
[CEASER][VICTIM] Set=987 | VictimWay=6 | Replacing Addr=0x95eea1d02b | LRU=15
[CEASER][MIGRATE] Moving block: Addr=0x95eea20eb3 | OldSet=386 → NewSet=3283 | Way=2
[CEASER][VICTIM] Set=3283 | VictimWay=14 | Replacing Addr=0x512a98dc07 | LRU=15
[CEASER][MIGRATE] Moving block: Addr=0x99c4f10168 | OldSet=386 → NewSet=2808 | Way=3
[CEASER][VICTIM] Set=2808 | VictimWay=13 | Replacing Addr=0x21dbcc00f4 | LRU=15
[CEASER][MIGRATE] Moving block: Addr=0x2b4cc07830 | OldSet=386 → NewSet=3991 | Way=4
[CEASER][VICTIM] Set=3991 | VictimWay=6 | Replacing Addr=0x26542aa186 | LRU=15
[CEASER][MIGRATE] Moving block: Addr=0x26542aa3d5 | OldSet=386 → NewSet=3020 | Way=5
[CEASER][VICTIM] Set=3020 | VictimWay=11 | Replacing Addr=0x2884c86321 | LRU=15
[CEASER][MIGRATE] Moving block: Addr=0xa3a0df2e16 | OldSet=386 → NewSet=2084 | Way=6
[CEASER][VICTIM] Set=2084 | VictimWay=0 | Replacing Addr=0x37b6a180ef | LRU=15
[CEASER][MIGRATE] Moving block: Addr=0x478a077efb | OldSet=386 → NewSet=1326 | Way=7
[CEASER][VICTIM] Set=1326 | VictimWay=3 | Replacing Addr=0xc81c49aa70 | LRU=15
[CEASER][MIGRATE] Moving block: Addr=0x37b6a18d7e | OldSet=386 → NewSet=518 | Way=8
[CEASER][VICTIM] Set=518 | VictimWay=7 | Replacing Addr=0x37b6a1870a | LRU=15
[CEASER][MIGRATE] Moving block: Addr=0xa3a0df3625 | OldSet=386 → NewSet=817 | Way=9
[CEASER][VICTIM] Set=817 | VictimWay=9 | Replacing Addr=0xf7f4ea4e60 | LRU=15
[CEASER][MIGRATE] Moving block: Addr=0x26542a9793 | OldSet=386 → NewSet=4049 | Way=10
[CEASER][VICTIM] Set=4049 | VictimWay=14 | Replacing Addr=0xf7f4ea616a | LRU=15
[CEASER][MIGRATE] Moving block: Addr=0x99c4f1113e | OldSet=386 → NewSet=1436 | Way=11
[CEASER][VICTIM] Set=1436 | VictimWay=10 | Replacing Addr=0xbfd401e20e | LRU=15
[CEASER][MIGRATE] Moving block: Addr=0x95eea208e6 | OldSet=386 → NewSet=921 | Way=12
[CEASER][VICTIM] Set=921 | VictimWay=5 | Replacing Addr=0x99c4f11e0f | LRU=15
[CEASER][MIGRATE] Moving block: Addr=0x37b6a18b2b | OldSet=386 → NewSet=3404 | Way=13
[CEASER][VICTIM] Set=3404 | VictimWay=13 | Replacing Addr=0x99c4f0fdbe | LRU=15
[CEASER][MIGRATE] Moving block: Addr=0x95eea21680 | OldSet=386 → NewSet=1990 | Way=14
[CEASER][VICTIM] Set=1990 | VictimWay=9 | Replacing Addr=0xf7f4ea60bb | LRU=15
[CEASER][MIGRATE] Moving block: Addr=0x2b4cc07e65 | OldSet=386 → NewSet=221 | Way=15
[CEASER][VICTIM] Set=221 | VictimWay=10 | Replacing Addr=0x26542aa11a | LRU=15
[CEASER][REKEY] Rekeying Set 387 → Epoch 1 at cycle 7760057
[CEASER][MIGRATE] Moving block: Addr=0x37b6a17875 | OldSet=387 → NewSet=1408 | Way=0
[CEASER][VICTIM] Set=1408 | VictimWay=6 | Replacing Addr=0x2b4cc074c2 | LRU=15
[CEASER][MIGRATE] Moving block: Addr=0x37b6a17e20 | OldSet=387 → NewSet=2762 | Way=1
[CEASER][VICTIM] Set=2762 | VictimWay=15 | Replacing Addr=0x95eea205a9 | LRU=15
[CEASER][MIGRATE] Moving block: Addr=0x512a98db45 | OldSet=387 → NewSet=910 | Way=2
[CEASER][VICTIM] Set=910 | VictimWay=14 | Replacing Addr=0xf7f4ea4086 | LRU=15
[CEASER][MIGRATE] Moving block: Addr=0x512a98dd10 | OldSet=387 → NewSet=3268 | Way=3
[CEASER][VICTIM] Set=3268 | VictimWay=13 | Replacing Addr=0x1e377ef0f0 | LRU=15
[CEASER][MIGRATE] Moving block: Addr=0x95eea1c071 | OldSet=387 → NewSet=333 | Way=4
[CEASER][VICTIM] Set=333 | VictimWay=5 | Replacing Addr=0x2b4cc0a655 | LRU=15
[CEASER][MIGRATE] Moving block: Addr=0x95eea1bf72 | OldSet=387 → NewSet=1741 | Way=5
[CEASER][VICTIM] Set=1741 | VictimWay=15 | Replacing Addr=0x37b6a19b24 | LRU=15
[CEASER][MIGRATE] Moving block: Addr=0x95eea1c1e3 | OldSet=387 → NewSet=1573 | Way=6
[CEASER][VICTIM] Set=1573 | VictimWay=11 | Replacing Addr=0xa3a0df40e1 | LRU=15
[CEASER][MIGRATE] Moving block: Addr=0x95eea1df85 | OldSet=387 → NewSet=634 | Way=7
[CEASER][VICTIM] Set=634 | VictimWay=2 | Replacing Addr=0x95eea23191 | LRU=15
[CEASER][MIGRATE] Moving block: Addr=0x95eea1f5a5 | OldSet=387 → NewSet=568 | Way=8
[CEASER][VICTIM] Set=568 | VictimWay=3 | Replacing Addr=0x95eea20c03 | LRU=15
[CEASER][MIGRATE] Moving block: Addr=0xf7f4ea5ffb | OldSet=387 → NewSet=472 | Way=9
[CEASER][VICTIM] Set=472 | VictimWay=0 | Replacing Addr=0x95eea1e881 | LRU=15
[CEASER][MIGRATE] Moving block: Addr=0xf7f4ea6bbd | OldSet=387 → NewSet=1477 | Way=10
[CEASER][VICTIM] Set=1477 | VictimWay=4 | Replacing Addr=0xa3a0df3aa2 | LRU=15
[CEASER][MIGRATE] Moving block: Addr=0xf7f4ea6de8 | OldSet=387 → NewSet=2703 | Way=11
[CEASER][VICTIM] Set=2703 | VictimWay=11 | Replacing Addr=0x95eea2319a | LRU=15
[CEASER][MIGRATE] Moving block: Addr=0x2b4cc08b6e | OldSet=387 → NewSet=1883 | Way=12
[CEASER][VICTIM] Set=1883 | VictimWay=11 | Replacing Addr=0x37b6a1908c | LRU=15
[CEASER][MIGRATE] Moving block: Addr=0x2b4cc09508 | OldSet=387 → NewSet=772 | Way=13
[CEASER][VICTIM] Set=772 | VictimWay=1 | Replacing Addr=0x95eea1c4cf | LRU=15
[CEASER][MIGRATE] Moving block: Addr=0x99c4f10696 | OldSet=387 → NewSet=2982 | Way=14
[CEASER][VICTIM] Set=2982 | VictimWay=4 | Replacing Addr=0x2b4cc09e8c | LRU=15
[CEASER][MIGRATE] Moving block: Addr=0x99c4f12cb6 | OldSet=387 → NewSet=3044 | Way=15
[CEASER][VICTIM] Set=3044 | VictimWay=10 | Replacing Addr=0x2b4cc0893e | LRU=15
Caught signal: 2
